2
Properties=species:S:1:pos:R:3:forces:R:3 energy=903981.5961186709 pbc="F F F"
Er       0.00000000       0.00000000       0.00000000       0.00000000       0.00000000 -1715978.75000000
Er       0.00000000       0.00000000       0.10000000       0.00000000       0.00000000 1715978.75000000
2
Properties=species:S:1:pos:R:3:forces:R:3 energy=853154.4711186709 pbc="F F F"
Er       0.00000000       0.00000000       0.00000000       0.00000000       0.00000000 -407561.90625000
Er       0.00000000       0.00000000       0.15959596       0.00000000       0.00000000  407561.90625000
2
Properties=species:S:1:pos:R:3:forces:R:3 energy=835118.9711186709 pbc="F F F"
Er       0.00000000       0.00000000       0.00000000       0.00000000       0.00000000 -268722.68750000
Er       0.00000000       0.00000000       0.21919192       0.00000000       0.00000000  268722.68750000
2
Properties=species:S:1:pos:R:3:forces:R:3 energy=815766.2211186709 pbc="F F F"
Er       0.00000000       0.00000000       0.00000000       0.00000000       0.00000000 -414264.65625000
Er       0.00000000       0.00000000       0.27878788       0.00000000       0.00000000  414264.65625000
2
Properties=species:S:1:pos:R:3:forces:R:3 energy=782242.3461186709 pbc="F F F"
Er       0.00000000       0.00000000       0.00000000       0.00000000       0.00000000 -738342.43750000
Er       0.00000000       0.00000000       0.33838384       0.00000000       0.00000000  738342.43750000
2
Properties=species:S:1:pos:R:3:forces:R:3 energy=724782.5961186709 pbc="F F F"
Er       0.00000000       0.00000000       0.00000000       0.00000000       0.00000000 -1210766.00000000
Er       0.00000000       0.00000000       0.39797980       0.00000000       0.00000000 1210766.00000000
2
Properties=species:S:1:pos:R:3:forces:R:3 energy=636256.721118674 pbc="F F F"
Er       0.00000000       0.00000000       0.00000000       0.00000000       0.00000000 -1763998.62500000
Er       0.00000000       0.00000000       0.45757576       0.00000000       0.00000000 1763998.62500000
2
Properties=species:S:1:pos:R:3:forces:R:3 energy=515715.59611867403 pbc="F F F"
Er       0.00000000       0.00000000       0.00000000       0.00000000       0.00000000 -2255157.00000000
Er       0.00000000       0.00000000       0.51717172       0.00000000       0.00000000 2255157.00000000
2
Properties=species:S:1:pos:R:3:forces:R:3 energy=372757.28361867403 pbc="F F F"
Er       0.00000000       0.00000000       0.00000000       0.00000000       0.00000000 -2480664.75000000
Er       0.00000000       0.00000000       0.57676768       0.00000000       0.00000000 2480664.75000000
2
Properties=species:S:1:pos:R:3:forces:R:3 energy=228840.89299368038 pbc="F F F"
Er       0.00000000       0.00000000       0.00000000       0.00000000       0.00000000 -2269267.50000000
Er       0.00000000       0.00000000       0.63636364       0.00000000       0.00000000 2269267.50000000
2
Properties=species:S:1:pos:R:3:forces:R:3 energy=110936.6117436867 pbc="F F F"
Er       0.00000000       0.00000000       0.00000000       0.00000000       0.00000000 -1631640.00000000
Er       0.00000000       0.00000000       0.69595960       0.00000000       0.00000000 1631640.00000000
2
Properties=species:S:1:pos:R:3:forces:R:3 energy=37571.135181196216 pbc="F F F"
Er       0.00000000       0.00000000       0.00000000       0.00000000       0.00000000 -836802.68750000
Er       0.00000000       0.00000000       0.75555556       0.00000000       0.00000000  836802.68750000
2
Properties=species:S:1:pos:R:3:forces:R:3 energy=6797.397876524551 pbc="F F F"
Er       0.00000000       0.00000000       0.00000000       0.00000000       0.00000000 -252487.18750000
Er       0.00000000       0.00000000       0.81515152       0.00000000       0.00000000  252487.18750000
2
Properties=species:S:1:pos:R:3:forces:R:3 energy=106.50231532529656 pbc="F F F"
Er       0.00000000       0.00000000       0.00000000       0.00000000       0.00000000  -24332.10937500
Er       0.00000000       0.00000000       0.87474747       0.00000000       0.00000000   24332.10937500
2
Properties=species:S:1:pos:R:3:forces:R:3 energy=-52.386287853474435 pbc="F F F"
Er       0.00000000       0.00000000       0.00000000       0.00000000       0.00000000      56.10625458
Er       0.00000000       0.00000000       0.93434343       0.00000000       0.00000000     -56.10625458
2
Properties=species:S:1:pos:R:3:forces:R:3 energy=-76.41065609525774 pbc="F F F"
Er       0.00000000       0.00000000       0.00000000       0.00000000       0.00000000     -32.09549713
Er       0.00000000       0.00000000       0.99393939       0.00000000       0.00000000      32.09549713
2
Properties=species:S:1:pos:R:3:forces:R:3 energy=-77.26903921694787 pbc="F F F"
Er       0.00000000       0.00000000       0.00000000       0.00000000       0.00000000      -1.80373633
Er       0.00000000       0.00000000       1.05353535       0.00000000       0.00000000       1.80373633
2
Properties=species:S:1:pos:R:3:forces:R:3 energy=-76.9445762566308 pbc="F F F"
Er       0.00000000       0.00000000       0.00000000       0.00000000       0.00000000      10.88986397
Er       0.00000000       0.00000000       1.11313131       0.00000000       0.00000000     -10.88986397
2
Properties=species:S:1:pos:R:3:forces:R:3 energy=-75.99875248582688 pbc="F F F"
Er       0.00000000       0.00000000       0.00000000       0.00000000       0.00000000      21.29800606
Er       0.00000000       0.00000000       1.17272727       0.00000000       0.00000000     -21.29800606
2
Properties=species:S:1:pos:R:3:forces:R:3 energy=-74.40921378489526 pbc="F F F"
Er       0.00000000       0.00000000       0.00000000       0.00000000       0.00000000      31.13078690
Er       0.00000000       0.00000000       1.23232323       0.00000000       0.00000000     -31.13078690
2
Properties=species:S:1:pos:R:3:forces:R:3 energy=-72.4659686892543 pbc="F F F"
Er       0.00000000       0.00000000       0.00000000       0.00000000       0.00000000      32.64366150
Er       0.00000000       0.00000000       1.29191919       0.00000000       0.00000000     -32.64366150
2
Properties=species:S:1:pos:R:3:forces:R:3 energy=-70.61909043158803 pbc="F F F"
Er       0.00000000       0.00000000       0.00000000       0.00000000       0.00000000      29.03006172
Er       0.00000000       0.00000000       1.35151515       0.00000000       0.00000000     -29.03006172
2
Properties=species:S:1:pos:R:3:forces:R:3 energy=-69.01248464204147 pbc="F F F"
Er       0.00000000       0.00000000       0.00000000       0.00000000       0.00000000      24.92271233
Er       0.00000000       0.00000000       1.41111111       0.00000000       0.00000000     -24.92271233
2
Properties=species:S:1:pos:R:3:forces:R:3 energy=-67.6481273242947 pbc="F F F"
Er       0.00000000       0.00000000       0.00000000       0.00000000       0.00000000      20.80623245
Er       0.00000000       0.00000000       1.47070707       0.00000000       0.00000000     -20.80623245
2
Properties=species:S:1:pos:R:3:forces:R:3 energy=-66.54505381136757 pbc="F F F"
Er       0.00000000       0.00000000       0.00000000       0.00000000       0.00000000      16.09453773
Er       0.00000000       0.00000000       1.53030303       0.00000000       0.00000000     -16.09453773
2
Properties=species:S:1:pos:R:3:forces:R:3 energy=-65.73822196999532 pbc="F F F"
Er       0.00000000       0.00000000       0.00000000       0.00000000       0.00000000      10.99025726
Er       0.00000000       0.00000000       1.58989899       0.00000000       0.00000000     -10.99025726
2
Properties=species:S:1:pos:R:3:forces:R:3 energy=-65.2226345340887 pbc="F F F"
Er       0.00000000       0.00000000       0.00000000       0.00000000       0.00000000       6.50065565
Er       0.00000000       0.00000000       1.64949495       0.00000000       0.00000000      -6.50065565
2
Properties=species:S:1:pos:R:3:forces:R:3 energy=-64.93729447853126 pbc="F F F"
Er       0.00000000       0.00000000       0.00000000       0.00000000       0.00000000       3.28232741
Er       0.00000000       0.00000000       1.70909091       0.00000000       0.00000000      -3.28232741
2
Properties=species:S:1:pos:R:3:forces:R:3 energy=-64.8135448597615 pbc="F F F"
Er       0.00000000       0.00000000       0.00000000       0.00000000       0.00000000       0.95404124
Er       0.00000000       0.00000000       1.76868687       0.00000000       0.00000000      -0.95404124
2
Properties=species:S:1:pos:R:3:forces:R:3 energy=-64.81948715706956 pbc="F F F"
Er       0.00000000       0.00000000       0.00000000       0.00000000       0.00000000      -1.14330745
Er       0.00000000       0.00000000       1.82828283       0.00000000       0.00000000       1.14330745
2
Properties=species:S:1:pos:R:3:forces:R:3 energy=-64.94675190247986 pbc="F F F"
Er       0.00000000       0.00000000       0.00000000       0.00000000       0.00000000      -3.06758499
Er       0.00000000       0.00000000       1.88787879       0.00000000       0.00000000       3.06758499
2
Properties=species:S:1:pos:R:3:forces:R:3 energy=-65.17329012045451 pbc="F F F"
Er       0.00000000       0.00000000       0.00000000       0.00000000       0.00000000      -4.40895319
Er       0.00000000       0.00000000       1.94747475       0.00000000       0.00000000       4.40895319
2
Properties=species:S:1:pos:R:3:forces:R:3 energy=-65.45737662379173 pbc="F F F"
Er       0.00000000       0.00000000       0.00000000       0.00000000       0.00000000      -5.01634693
Er       0.00000000       0.00000000       2.00707071       0.00000000       0.00000000       5.01634693
2
Properties=species:S:1:pos:R:3:forces:R:3 energy=-65.76155867355591 pbc="F F F"
Er       0.00000000       0.00000000       0.00000000       0.00000000       0.00000000      -5.13803291
Er       0.00000000       0.00000000       2.06666667       0.00000000       0.00000000       5.13803291
2
Properties=species:S:1:pos:R:3:forces:R:3 energy=-66.06579382813871 pbc="F F F"
Er       0.00000000       0.00000000       0.00000000       0.00000000       0.00000000      -5.05359936
Er       0.00000000       0.00000000       2.12626263       0.00000000       0.00000000       5.05359936
2
Properties=species:S:1:pos:R:3:forces:R:3 energy=-66.36273492992137 pbc="F F F"
Er       0.00000000       0.00000000       0.00000000       0.00000000       0.00000000      -4.90580082
Er       0.00000000       0.00000000       2.18585859       0.00000000       0.00000000       4.90580082
2
Properties=species:S:1:pos:R:3:forces:R:3 energy=-66.64969639718286 pbc="F F F"
Er       0.00000000       0.00000000       0.00000000       0.00000000       0.00000000      -4.71337843
Er       0.00000000       0.00000000       2.24545455       0.00000000       0.00000000       4.71337843
2
Properties=species:S:1:pos:R:3:forces:R:3 energy=-66.92251251715267 pbc="F F F"
Er       0.00000000       0.00000000       0.00000000       0.00000000       0.00000000      -4.42019224
Er       0.00000000       0.00000000       2.30505051       0.00000000       0.00000000       4.42019224
2
Properties=species:S:1:pos:R:3:forces:R:3 energy=-67.17372170079754 pbc="F F F"
Er       0.00000000       0.00000000       0.00000000       0.00000000       0.00000000      -3.98735905
Er       0.00000000       0.00000000       2.36464646       0.00000000       0.00000000       3.98735905
2
Properties=species:S:1:pos:R:3:forces:R:3 energy=-67.39561057005777 pbc="F F F"
Er       0.00000000       0.00000000       0.00000000       0.00000000       0.00000000      -3.44692779
Er       0.00000000       0.00000000       2.42424242       0.00000000       0.00000000       3.44692779
2
Properties=species:S:1:pos:R:3:forces:R:3 energy=-67.58383793292079 pbc="F F F"
Er       0.00000000       0.00000000       0.00000000       0.00000000       0.00000000      -2.86934114
Er       0.00000000       0.00000000       2.48383838       0.00000000       0.00000000       2.86934114
2
Properties=species:S:1:pos:R:3:forces:R:3 energy=-67.73801462690909 pbc="F F F"
Er       0.00000000       0.00000000       0.00000000       0.00000000       0.00000000      -2.31096959
Er       0.00000000       0.00000000       2.54343434       0.00000000       0.00000000       2.31096959
2
Properties=species:S:1:pos:R:3:forces:R:3 energy=-67.86018526323276 pbc="F F F"
Er       0.00000000       0.00000000       0.00000000       0.00000000       0.00000000      -1.79733741
Er       0.00000000       0.00000000       2.60303030       0.00000000       0.00000000       1.79733741
2
Properties=species:S:1:pos:R:3:forces:R:3 energy=-67.95327943752498 pbc="F F F"
Er       0.00000000       0.00000000       0.00000000       0.00000000       0.00000000      -1.33594203
Er       0.00000000       0.00000000       2.66262626       0.00000000       0.00000000       1.33594203
2
Properties=species:S:1:pos:R:3:forces:R:3 energy=-68.02058533963316 pbc="F F F"
Er       0.00000000       0.00000000       0.00000000       0.00000000       0.00000000      -0.93334550
Er       0.00000000       0.00000000       2.72222222       0.00000000       0.00000000       0.93334550
2
Properties=species:S:1:pos:R:3:forces:R:3 energy=-68.06592519484713 pbc="F F F"
Er       0.00000000       0.00000000       0.00000000       0.00000000       0.00000000      -0.60111749
Er       0.00000000       0.00000000       2.78181818       0.00000000       0.00000000       0.60111749
2
Properties=species:S:1:pos:R:3:forces:R:3 energy=-68.09384602727285 pbc="F F F"
Er       0.00000000       0.00000000       0.00000000       0.00000000       0.00000000      -0.34949693
Er       0.00000000       0.00000000       2.84141414       0.00000000       0.00000000       0.34949693
2
Properties=species:S:1:pos:R:3:forces:R:3 energy=-68.10916950971595 pbc="F F F"
Er       0.00000000       0.00000000       0.00000000       0.00000000       0.00000000      -0.17717643
Er       0.00000000       0.00000000       2.90101010       0.00000000       0.00000000       0.17717643
2
Properties=species:S:1:pos:R:3:forces:R:3 energy=-68.11622139166624 pbc="F F F"
Er       0.00000000       0.00000000       0.00000000       0.00000000       0.00000000      -0.06792056
Er       0.00000000       0.00000000       2.96060606       0.00000000       0.00000000       0.06792056
2
Properties=species:S:1:pos:R:3:forces:R:3 energy=-68.1180304128719 pbc="F F F"
Er       0.00000000       0.00000000       0.00000000       0.00000000       0.00000000       0.00269244
Er       0.00000000       0.00000000       3.02020202       0.00000000       0.00000000      -0.00269244
2
Properties=species:S:1:pos:R:3:forces:R:3 energy=-68.11622151715868 pbc="F F F"
Er       0.00000000       0.00000000       0.00000000       0.00000000       0.00000000       0.05678181
Er       0.00000000       0.00000000       3.07979798       0.00000000       0.00000000      -0.05678181
2
Properties=species:S:1:pos:R:3:forces:R:3 energy=-68.11131334496359 pbc="F F F"
Er       0.00000000       0.00000000       0.00000000       0.00000000       0.00000000       0.10834058
Er       0.00000000       0.00000000       3.13939394       0.00000000       0.00000000      -0.10834058
2
Properties=species:S:1:pos:R:3:forces:R:3 energy=-68.10322182405913 pbc="F F F"
Er       0.00000000       0.00000000       0.00000000       0.00000000       0.00000000       0.16421245
Er       0.00000000       0.00000000       3.19898990       0.00000000       0.00000000      -0.16421245
2
Properties=species:S:1:pos:R:3:forces:R:3 energy=-68.09158821451126 pbc="F F F"
Er       0.00000000       0.00000000       0.00000000       0.00000000       0.00000000       0.22756019
Er       0.00000000       0.00000000       3.25858586       0.00000000       0.00000000      -0.22756019
2
Properties=species:S:1:pos:R:3:forces:R:3 energy=-68.0759316807308 pbc="F F F"
Er       0.00000000       0.00000000       0.00000000       0.00000000       0.00000000       0.29904258
Er       0.00000000       0.00000000       3.31818182       0.00000000       0.00000000      -0.29904258
2
Properties=species:S:1:pos:R:3:forces:R:3 energy=-68.05584003584028 pbc="F F F"
Er       0.00000000       0.00000000       0.00000000       0.00000000       0.00000000       0.37555155
Er       0.00000000       0.00000000       3.37777778       0.00000000       0.00000000      -0.37555155
2
Properties=species:S:1:pos:R:3:forces:R:3 energy=-68.0312215402038 pbc="F F F"
Er       0.00000000       0.00000000       0.00000000       0.00000000       0.00000000       0.44955778
Er       0.00000000       0.00000000       3.43737374       0.00000000       0.00000000      -0.44955778
2
Properties=species:S:1:pos:R:3:forces:R:3 energy=-68.00249557926958 pbc="F F F"
Er       0.00000000       0.00000000       0.00000000       0.00000000       0.00000000       0.51163906
Er       0.00000000       0.00000000       3.49696970       0.00000000       0.00000000      -0.51163906
2
Properties=species:S:1:pos:R:3:forces:R:3 energy=-67.97060035632087 pbc="F F F"
Er       0.00000000       0.00000000       0.00000000       0.00000000       0.00000000       0.55540043
Er       0.00000000       0.00000000       3.55656566       0.00000000       0.00000000      -0.55540043
2
Properties=species:S:1:pos:R:3:forces:R:3 energy=-67.93664953487605 pbc="F F F"
Er       0.00000000       0.00000000       0.00000000       0.00000000       0.00000000       0.58153772
Er       0.00000000       0.00000000       3.61616162       0.00000000       0.00000000      -0.58153772
2
Properties=species:S:1:pos:R:3:forces:R:3 energy=-67.90148211391471 pbc="F F F"
Er       0.00000000       0.00000000       0.00000000       0.00000000       0.00000000       0.59814566
Er       0.00000000       0.00000000       3.67575758       0.00000000       0.00000000      -0.59814566
2
Properties=species:S:1:pos:R:3:forces:R:3 energy=-67.86531909878813 pbc="F F F"
Er       0.00000000       0.00000000       0.00000000       0.00000000       0.00000000       0.61670178
Er       0.00000000       0.00000000       3.73535354       0.00000000       0.00000000      -0.61670178
2
Properties=species:S:1:pos:R:3:forces:R:3 energy=-67.82775586232127 pbc="F F F"
Er       0.00000000       0.00000000       0.00000000       0.00000000       0.00000000       0.64595574
Er       0.00000000       0.00000000       3.79494949       0.00000000       0.00000000      -0.64595574
2
Properties=species:S:1:pos:R:3:forces:R:3 energy=-67.78807496265983 pbc="F F F"
Er       0.00000000       0.00000000       0.00000000       0.00000000       0.00000000       0.68748111
Er       0.00000000       0.00000000       3.85454545       0.00000000       0.00000000      -0.68748111
2
Properties=species:S:1:pos:R:3:forces:R:3 energy=-67.74568101875859 pbc="F F F"
Er       0.00000000       0.00000000       0.00000000       0.00000000       0.00000000       0.73563898
Er       0.00000000       0.00000000       3.91414141       0.00000000       0.00000000      -0.73563898
2
Properties=species:S:1:pos:R:3:forces:R:3 energy=-67.70044403630304 pbc="F F F"
Er       0.00000000       0.00000000       0.00000000       0.00000000       0.00000000       0.78146362
Er       0.00000000       0.00000000       3.97373737       0.00000000       0.00000000      -0.78146362
2
Properties=species:S:1:pos:R:3:forces:R:3 energy=-67.65273752617169 pbc="F F F"
Er       0.00000000       0.00000000       0.00000000       0.00000000       0.00000000       0.81734633
Er       0.00000000       0.00000000       4.03333333       0.00000000       0.00000000      -0.81734633
2
Properties=species:S:1:pos:R:3:forces:R:3 energy=-67.60329360296083 pbc="F F F"
Er       0.00000000       0.00000000       0.00000000       0.00000000       0.00000000       0.83967328
Er       0.00000000       0.00000000       4.09292929       0.00000000       0.00000000      -0.83967328
2
Properties=species:S:1:pos:R:3:forces:R:3 energy=-67.55292063719813 pbc="F F F"
Er       0.00000000       0.00000000       0.00000000       0.00000000       0.00000000       0.84877855
Er       0.00000000       0.00000000       4.15252525       0.00000000       0.00000000      -0.84877855
2
Properties=species:S:1:pos:R:3:forces:R:3 energy=-67.50233544984474 pbc="F F F"
Er       0.00000000       0.00000000       0.00000000       0.00000000       0.00000000       0.84727091
Er       0.00000000       0.00000000       4.21212121       0.00000000       0.00000000      -0.84727091
2
Properties=species:S:1:pos:R:3:forces:R:3 energy=-67.45208700251082 pbc="F F F"
Er       0.00000000       0.00000000       0.00000000       0.00000000       0.00000000       0.83808124
Er       0.00000000       0.00000000       4.27171717       0.00000000       0.00000000      -0.83808124
2
Properties=species:S:1:pos:R:3:forces:R:3 energy=-67.40255641012689 pbc="F F F"
Er       0.00000000       0.00000000       0.00000000       0.00000000       0.00000000       0.82302976
Er       0.00000000       0.00000000       4.33131313       0.00000000       0.00000000      -0.82302976
2
Properties=species:S:1:pos:R:3:forces:R:3 energy=-67.35409425103833 pbc="F F F"
Er       0.00000000       0.00000000       0.00000000       0.00000000       0.00000000       0.80229765
Er       0.00000000       0.00000000       4.39090909       0.00000000       0.00000000      -0.80229765
2
Properties=species:S:1:pos:R:3:forces:R:3 energy=-67.3070663687153 pbc="F F F"
Er       0.00000000       0.00000000       0.00000000       0.00000000       0.00000000       0.77473211
Er       0.00000000       0.00000000       4.45050505       0.00000000       0.00000000      -0.77473211
2
Properties=species:S:1:pos:R:3:forces:R:3 energy=-67.26192252363212 pbc="F F F"
Er       0.00000000       0.00000000       0.00000000       0.00000000       0.00000000       0.73876333
Er       0.00000000       0.00000000       4.51010101       0.00000000       0.00000000      -0.73876333
2
Properties=species:S:1:pos:R:3:forces:R:3 energy=-67.21919639643514 pbc="F F F"
Er       0.00000000       0.00000000       0.00000000       0.00000000       0.00000000       0.69350827
Er       0.00000000       0.00000000       4.56969697       0.00000000       0.00000000      -0.69350827
2
Properties=species:S:1:pos:R:3:forces:R:3 energy=-67.17943692655977 pbc="F F F"
Er       0.00000000       0.00000000       0.00000000       0.00000000       0.00000000       0.63967067
Er       0.00000000       0.00000000       4.62929293       0.00000000       0.00000000      -0.63967067
2
Properties=species:S:1:pos:R:3:forces:R:3 energy=-67.14307862519476 pbc="F F F"
Er       0.00000000       0.00000000       0.00000000       0.00000000       0.00000000       0.57979196
Er       0.00000000       0.00000000       4.68888889       0.00000000       0.00000000      -0.57979196
2
Properties=species:S:1:pos:R:3:forces:R:3 energy=-67.11037289172444 pbc="F F F"
Er       0.00000000       0.00000000       0.00000000       0.00000000       0.00000000       0.51764482
Er       0.00000000       0.00000000       4.74848485       0.00000000       0.00000000      -0.51764482
2
Properties=species:S:1:pos:R:3:forces:R:3 energy=-67.08134226270414 pbc="F F F"
Er       0.00000000       0.00000000       0.00000000       0.00000000       0.00000000       0.45715439
Er       0.00000000       0.00000000       4.80808081       0.00000000       0.00000000      -0.45715439
2
Properties=species:S:1:pos:R:3:forces:R:3 energy=-67.05578802541561 pbc="F F F"
Er       0.00000000       0.00000000       0.00000000       0.00000000       0.00000000       0.40122145
Er       0.00000000       0.00000000       4.86767677       0.00000000       0.00000000      -0.40122145
2
Properties=species:S:1:pos:R:3:forces:R:3 energy=-67.03340467937585 pbc="F F F"
Er       0.00000000       0.00000000       0.00000000       0.00000000       0.00000000       0.35104454
Er       0.00000000       0.00000000       4.92727273       0.00000000       0.00000000      -0.35104454
2
Properties=species:S:1:pos:R:3:forces:R:3 energy=-67.01384096515766 pbc="F F F"
Er       0.00000000       0.00000000       0.00000000       0.00000000       0.00000000       0.30609396
Er       0.00000000       0.00000000       4.98686869       0.00000000       0.00000000      -0.30609396
2
Properties=species:S:1:pos:R:3:forces:R:3 energy=-66.99685246019986 pbc="F F F"
Er       0.00000000       0.00000000       0.00000000       0.00000000       0.00000000       0.26471946
Er       0.00000000       0.00000000       5.04646465       0.00000000       0.00000000      -0.26471946
2
Properties=species:S:1:pos:R:3:forces:R:3 energy=-66.98225579610448 pbc="F F F"
Er       0.00000000       0.00000000       0.00000000       0.00000000       0.00000000       0.22511809
Er       0.00000000       0.00000000       5.10606061       0.00000000       0.00000000      -0.22511809
2
Properties=species:S:1:pos:R:3:forces:R:3 energy=-66.96999733902659 pbc="F F F"
Er       0.00000000       0.00000000       0.00000000       0.00000000       0.00000000       0.18648823
Er       0.00000000       0.00000000       5.16565657       0.00000000       0.00000000      -0.18648823
2
Properties=species:S:1:pos:R:3:forces:R:3 energy=-66.95998535408206 pbc="F F F"
Er       0.00000000       0.00000000       0.00000000       0.00000000       0.00000000       0.15004611
Er       0.00000000       0.00000000       5.22525253       0.00000000       0.00000000      -0.15004611
2
Properties=species:S:1:pos:R:3:forces:R:3 energy=-66.95200605824898 pbc="F F F"
Er       0.00000000       0.00000000       0.00000000       0.00000000       0.00000000       0.11920805
Er       0.00000000       0.00000000       5.28484848       0.00000000       0.00000000      -0.11920805
2
Properties=species:S:1:pos:R:3:forces:R:3 energy=-66.94559395867455 pbc="F F F"
Er       0.00000000       0.00000000       0.00000000       0.00000000       0.00000000       0.09772884
Er       0.00000000       0.00000000       5.34444444       0.00000000       0.00000000      -0.09772884
2
Properties=species:S:1:pos:R:3:forces:R:3 energy=-66.9401844136392 pbc="F F F"
Er       0.00000000       0.00000000       0.00000000       0.00000000       0.00000000       0.08446801
Er       0.00000000       0.00000000       5.40404040       0.00000000       0.00000000      -0.08446801
2
Properties=species:S:1:pos:R:3:forces:R:3 energy=-66.93552564995557 pbc="F F F"
Er       0.00000000       0.00000000       0.00000000       0.00000000       0.00000000       0.07124879
Er       0.00000000       0.00000000       5.46363636       0.00000000       0.00000000      -0.07124879
2
Properties=species:S:1:pos:R:3:forces:R:3 energy=-66.93177793559397 pbc="F F F"
Er       0.00000000       0.00000000       0.00000000       0.00000000       0.00000000       0.05425220
Er       0.00000000       0.00000000       5.52323232       0.00000000       0.00000000      -0.05425220
2
Properties=species:S:1:pos:R:3:forces:R:3 energy=-66.92904056038927 pbc="F F F"
Er       0.00000000       0.00000000       0.00000000       0.00000000       0.00000000       0.03788937
Er       0.00000000       0.00000000       5.58282828       0.00000000       0.00000000      -0.03788937
2
Properties=species:S:1:pos:R:3:forces:R:3 energy=-66.9272602880582 pbc="F F F"
Er       0.00000000       0.00000000       0.00000000       0.00000000       0.00000000       0.02126162
Er       0.00000000       0.00000000       5.64242424       0.00000000       0.00000000      -0.02126162
2
Properties=species:S:1:pos:R:3:forces:R:3 energy=-66.92662808471512 pbc="F F F"
Er       0.00000000       0.00000000       0.00000000       0.00000000       0.00000000      -0.00124620
Er       0.00000000       0.00000000       5.70202020       0.00000000       0.00000000       0.00124620
2
Properties=species:S:1:pos:R:3:forces:R:3 energy=-66.92753335675981 pbc="F F F"
Er       0.00000000       0.00000000       0.00000000       0.00000000       0.00000000      -0.02891303
Er       0.00000000       0.00000000       5.76161616       0.00000000       0.00000000       0.02891303
2
Properties=species:S:1:pos:R:3:forces:R:3 energy=-66.92978572729294 pbc="F F F"
Er       0.00000000       0.00000000       0.00000000       0.00000000       0.00000000      -0.04214938
Er       0.00000000       0.00000000       5.82121212       0.00000000       0.00000000       0.04214938
2
Properties=species:S:1:pos:R:3:forces:R:3 energy=-66.93196657084285 pbc="F F F"
Er       0.00000000       0.00000000       0.00000000       0.00000000       0.00000000      -0.02774846
Er       0.00000000       0.00000000       5.88080808       0.00000000       0.00000000       0.02774846
2
Properties=species:S:1:pos:R:3:forces:R:3 energy=-66.93290908422654 pbc="F F F"
Er       0.00000000       0.00000000       0.00000000       0.00000000       0.00000000      -0.00391891
Er       0.00000000       0.00000000       5.94040404       0.00000000       0.00000000       0.00391891
2
Properties=species:S:1:pos:R:3:forces:R:3 energy=-66.93272064283977 pbc="F F F"
Er       0.00000000       0.00000000       0.00000000       0.00000000       0.00000000       0.00669416
Er       0.00000000       0.00000000       6.00000000       0.00000000       0.00000000      -0.00669416
