2
Properties=species:S:1:pos:R:3:forces:R:3 energy=-36996.11999785839 pbc="F F F"
Gd       0.00000000       0.00000000       0.00000000       0.00000000       0.00000000 -1541071.25000000
Gd       0.00000000       0.00000000       0.10000000       0.00000000       0.00000000 1541071.25000000
2
Properties=species:S:1:pos:R:3:forces:R:3 energy=-81452.72156035839 pbc="F F F"
Gd       0.00000000       0.00000000       0.00000000       0.00000000       0.00000000 -317630.93750000
Gd       0.00000000       0.00000000       0.15959596       0.00000000       0.00000000  317630.93750000
2
Properties=species:S:1:pos:R:3:forces:R:3 energy=-91773.63562285839 pbc="F F F"
Gd       0.00000000       0.00000000       0.00000000       0.00000000       0.00000000  -78811.24218750
Gd       0.00000000       0.00000000       0.21919192       0.00000000       0.00000000   78811.24218750
2
Properties=species:S:1:pos:R:3:forces:R:3 energy=-93569.38562285839 pbc="F F F"
Gd       0.00000000       0.00000000       0.00000000       0.00000000       0.00000000    9538.81542969
Gd       0.00000000       0.00000000       0.27878788       0.00000000       0.00000000   -9538.81542969
2
Properties=species:S:1:pos:R:3:forces:R:3 energy=-91071.12781035839 pbc="F F F"
Gd       0.00000000       0.00000000       0.00000000       0.00000000       0.00000000   73802.16406250
Gd       0.00000000       0.00000000       0.33838384       0.00000000       0.00000000  -73802.16406250
2
Properties=species:S:1:pos:R:3:forces:R:3 energy=-84691.40906035839 pbc="F F F"
Gd       0.00000000       0.00000000       0.00000000       0.00000000       0.00000000  141498.10937500
Gd       0.00000000       0.00000000       0.39797980       0.00000000       0.00000000 -141498.10937500
2
Properties=species:S:1:pos:R:3:forces:R:3 energy=-74117.26062285522 pbc="F F F"
Gd       0.00000000       0.00000000       0.00000000       0.00000000       0.00000000  213096.81250000
Gd       0.00000000       0.00000000       0.45757576       0.00000000       0.00000000 -213096.81250000
2
Properties=species:S:1:pos:R:3:forces:R:3 energy=-59506.053591605225 pbc="F F F"
Gd       0.00000000       0.00000000       0.00000000       0.00000000       0.00000000  273537.18750000
Gd       0.00000000       0.00000000       0.51717172       0.00000000       0.00000000 -273537.18750000
2
Properties=species:S:1:pos:R:3:forces:R:3 energy=-42224.58093535205 pbc="F F F"
Gd       0.00000000       0.00000000       0.00000000       0.00000000       0.00000000  298377.75000000
Gd       0.00000000       0.00000000       0.57676768       0.00000000       0.00000000 -298377.75000000
2
Properties=species:S:1:pos:R:3:forces:R:3 energy=-25067.18835722072 pbc="F F F"
Gd       0.00000000       0.00000000       0.00000000       0.00000000       0.00000000  267389.56250000
Gd       0.00000000       0.00000000       0.63636364       0.00000000       0.00000000 -267389.56250000
2
Properties=species:S:1:pos:R:3:forces:R:3 energy=-11409.806521276883 pbc="F F F"
Gd       0.00000000       0.00000000       0.00000000       0.00000000       0.00000000  184466.39062500
Gd       0.00000000       0.00000000       0.69595960       0.00000000       0.00000000 -184466.39062500
2
Properties=species:S:1:pos:R:3:forces:R:3 energy=-3383.274294701712 pbc="F F F"
Gd       0.00000000       0.00000000       0.00000000       0.00000000       0.00000000   86725.39843750
Gd       0.00000000       0.00000000       0.75555556       0.00000000       0.00000000  -86725.39843750
2
Properties=species:S:1:pos:R:3:forces:R:3 energy=-567.3696926350915 pbc="F F F"
Gd       0.00000000       0.00000000       0.00000000       0.00000000       0.00000000   21304.13867188
Gd       0.00000000       0.00000000       0.81515152       0.00000000       0.00000000  -21304.13867188
2
Properties=species:S:1:pos:R:3:forces:R:3 energy=-60.00131873889936 pbc="F F F"
Gd       0.00000000       0.00000000       0.00000000       0.00000000       0.00000000    4253.46435547
Gd       0.00000000       0.00000000       0.87474747       0.00000000       0.00000000   -4253.46435547
2
Properties=species:S:1:pos:R:3:forces:R:3 energy=15.323521844768804 pbc="F F F"
Gd       0.00000000       0.00000000       0.00000000       0.00000000       0.00000000     618.35949707
Gd       0.00000000       0.00000000       0.93434343       0.00000000       0.00000000    -618.35949707
2
Properties=species:S:1:pos:R:3:forces:R:3 energy=-1.4744822581044894 pbc="F F F"
Gd       0.00000000       0.00000000       0.00000000       0.00000000       0.00000000    -570.30877686
Gd       0.00000000       0.00000000       0.99393939       0.00000000       0.00000000     570.30877686
2
Properties=species:S:1:pos:R:3:forces:R:3 energy=-22.913550030572484 pbc="F F F"
Gd       0.00000000       0.00000000       0.00000000       0.00000000       0.00000000    -116.85368347
Gd       0.00000000       0.00000000       1.05353535       0.00000000       0.00000000     116.85368347
2
Properties=species:S:1:pos:R:3:forces:R:3 energy=-30.469625991678154 pbc="F F F"
Gd       0.00000000       0.00000000       0.00000000       0.00000000       0.00000000    -118.42697906
Gd       0.00000000       0.00000000       1.11313131       0.00000000       0.00000000     118.42697906
2
Properties=species:S:1:pos:R:3:forces:R:3 energy=-36.775350973708896 pbc="F F F"
Gd       0.00000000       0.00000000       0.00000000       0.00000000       0.00000000     -97.14444733
Gd       0.00000000       0.00000000       1.17272727       0.00000000       0.00000000      97.14444733
2
Properties=species:S:1:pos:R:3:forces:R:3 energy=-42.35385347668273 pbc="F F F"
Gd       0.00000000       0.00000000       0.00000000       0.00000000       0.00000000     -89.58493805
Gd       0.00000000       0.00000000       1.23232323       0.00000000       0.00000000      89.58493805
2
Properties=species:S:1:pos:R:3:forces:R:3 energy=-47.32471662573073 pbc="F F F"
Gd       0.00000000       0.00000000       0.00000000       0.00000000       0.00000000     -77.13478851
Gd       0.00000000       0.00000000       1.29191919       0.00000000       0.00000000      77.13478851
2
Properties=species:S:1:pos:R:3:forces:R:3 energy=-51.68470173337093 pbc="F F F"
Gd       0.00000000       0.00000000       0.00000000       0.00000000       0.00000000     -70.89061737
Gd       0.00000000       0.00000000       1.35151515       0.00000000       0.00000000      70.89061737
2
Properties=species:S:1:pos:R:3:forces:R:3 energy=-55.85278843329132 pbc="F F F"
Gd       0.00000000       0.00000000       0.00000000       0.00000000       0.00000000     -68.06787109
Gd       0.00000000       0.00000000       1.41111111       0.00000000       0.00000000      68.06787109
2
Properties=species:S:1:pos:R:3:forces:R:3 energy=-59.680680358203375 pbc="F F F"
Gd       0.00000000       0.00000000       0.00000000       0.00000000       0.00000000     -60.64872360
Gd       0.00000000       0.00000000       1.47070707       0.00000000       0.00000000      60.64872360
2
Properties=species:S:1:pos:R:3:forces:R:3 energy=-63.289387320512034 pbc="F F F"
Gd       0.00000000       0.00000000       0.00000000       0.00000000       0.00000000     -62.72425079
Gd       0.00000000       0.00000000       1.53030303       0.00000000       0.00000000      62.72425079
2
Properties=species:S:1:pos:R:3:forces:R:3 energy=-67.266609192931 pbc="F F F"
Gd       0.00000000       0.00000000       0.00000000       0.00000000       0.00000000     -69.73049164
Gd       0.00000000       0.00000000       1.58989899       0.00000000       0.00000000      69.73049164
2
Properties=species:S:1:pos:R:3:forces:R:3 energy=-71.31362845925796 pbc="F F F"
Gd       0.00000000       0.00000000       0.00000000       0.00000000       0.00000000     -62.99971008
Gd       0.00000000       0.00000000       1.64949495       0.00000000       0.00000000      62.99971008
2
Properties=species:S:1:pos:R:3:forces:R:3 energy=-74.40221252760699 pbc="F F F"
Gd       0.00000000       0.00000000       0.00000000       0.00000000       0.00000000     -37.81684875
Gd       0.00000000       0.00000000       1.70909091       0.00000000       0.00000000      37.81684875
2
Properties=species:S:1:pos:R:3:forces:R:3 energy=-75.66581474336004 pbc="F F F"
Gd       0.00000000       0.00000000       0.00000000       0.00000000       0.00000000      -5.61767340
Gd       0.00000000       0.00000000       1.76868687       0.00000000       0.00000000       5.61767340
2
Properties=species:S:1:pos:R:3:forces:R:3 energy=-75.41437923242269 pbc="F F F"
Gd       0.00000000       0.00000000       0.00000000       0.00000000       0.00000000      10.51777649
Gd       0.00000000       0.00000000       1.82828283       0.00000000       0.00000000     -10.51777649
2
Properties=species:S:1:pos:R:3:forces:R:3 energy=-74.74968209249921 pbc="F F F"
Gd       0.00000000       0.00000000       0.00000000       0.00000000       0.00000000       9.97824955
Gd       0.00000000       0.00000000       1.88787879       0.00000000       0.00000000      -9.97824955
2
Properties=species:S:1:pos:R:3:forces:R:3 energy=-74.33073512956386 pbc="F F F"
Gd       0.00000000       0.00000000       0.00000000       0.00000000       0.00000000       3.90347815
Gd       0.00000000       0.00000000       1.94747475       0.00000000       0.00000000      -3.90347815
2
Properties=species:S:1:pos:R:3:forces:R:3 energy=-74.26005448625486 pbc="F F F"
Gd       0.00000000       0.00000000       0.00000000       0.00000000       0.00000000      -1.12709689
Gd       0.00000000       0.00000000       2.00707071       0.00000000       0.00000000       1.12709689
2
Properties=species:S:1:pos:R:3:forces:R:3 energy=-74.4152646283575 pbc="F F F"
Gd       0.00000000       0.00000000       0.00000000       0.00000000       0.00000000      -3.71455479
Gd       0.00000000       0.00000000       2.06666667       0.00000000       0.00000000       3.71455479
2
Properties=species:S:1:pos:R:3:forces:R:3 energy=-74.66896988955905 pbc="F F F"
Gd       0.00000000       0.00000000       0.00000000       0.00000000       0.00000000      -4.59590626
Gd       0.00000000       0.00000000       2.12626263       0.00000000       0.00000000       4.59590626
2
Properties=species:S:1:pos:R:3:forces:R:3 energy=-74.94629534599636 pbc="F F F"
Gd       0.00000000       0.00000000       0.00000000       0.00000000       0.00000000      -4.62102556
Gd       0.00000000       0.00000000       2.18585859       0.00000000       0.00000000       4.62102556
2
Properties=species:S:1:pos:R:3:forces:R:3 energy=-75.21316043686149 pbc="F F F"
Gd       0.00000000       0.00000000       0.00000000       0.00000000       0.00000000      -4.30543900
Gd       0.00000000       0.00000000       2.24545455       0.00000000       0.00000000       4.30543900
2
Properties=species:S:1:pos:R:3:forces:R:3 energy=-75.45783109792846 pbc="F F F"
Gd       0.00000000       0.00000000       0.00000000       0.00000000       0.00000000      -3.90171242
Gd       0.00000000       0.00000000       2.30505051       0.00000000       0.00000000       3.90171242
2
Properties=species:S:1:pos:R:3:forces:R:3 energy=-75.67813288047986 pbc="F F F"
Gd       0.00000000       0.00000000       0.00000000       0.00000000       0.00000000      -3.49045539
Gd       0.00000000       0.00000000       2.36464646       0.00000000       0.00000000       3.49045539
2
Properties=species:S:1:pos:R:3:forces:R:3 energy=-75.87342486310604 pbc="F F F"
Gd       0.00000000       0.00000000       0.00000000       0.00000000       0.00000000      -3.05685353
Gd       0.00000000       0.00000000       2.42424242       0.00000000       0.00000000       3.05685353
2
Properties=species:S:1:pos:R:3:forces:R:3 energy=-76.04154784637517 pbc="F F F"
Gd       0.00000000       0.00000000       0.00000000       0.00000000       0.00000000      -2.57805228
Gd       0.00000000       0.00000000       2.48383838       0.00000000       0.00000000       2.57805228
2
Properties=species:S:1:pos:R:3:forces:R:3 energy=-76.18026633374228 pbc="F F F"
Gd       0.00000000       0.00000000       0.00000000       0.00000000       0.00000000      -2.07814074
Gd       0.00000000       0.00000000       2.54343434       0.00000000       0.00000000       2.07814074
2
Properties=species:S:1:pos:R:3:forces:R:3 energy=-76.29002274297511 pbc="F F F"
Gd       0.00000000       0.00000000       0.00000000       0.00000000       0.00000000      -1.61680329
Gd       0.00000000       0.00000000       2.60303030       0.00000000       0.00000000       1.61680329
2
Properties=species:S:1:pos:R:3:forces:R:3 energy=-76.37473086793699 pbc="F F F"
Gd       0.00000000       0.00000000       0.00000000       0.00000000       0.00000000      -1.24237275
Gd       0.00000000       0.00000000       2.66262626       0.00000000       0.00000000       1.24237275
2
Properties=species:S:1:pos:R:3:forces:R:3 energy=-76.43996767882082 pbc="F F F"
Gd       0.00000000       0.00000000       0.00000000       0.00000000       0.00000000      -0.96066898
Gd       0.00000000       0.00000000       2.72222222       0.00000000       0.00000000       0.96066898
2
Properties=species:S:1:pos:R:3:forces:R:3 energy=-76.49044041384991 pbc="F F F"
Gd       0.00000000       0.00000000       0.00000000       0.00000000       0.00000000      -0.73912263
Gd       0.00000000       0.00000000       2.78181818       0.00000000       0.00000000       0.73912263
2
Properties=species:S:1:pos:R:3:forces:R:3 energy=-76.52836147547717 pbc="F F F"
Gd       0.00000000       0.00000000       0.00000000       0.00000000       0.00000000      -0.53260207
Gd       0.00000000       0.00000000       2.84141414       0.00000000       0.00000000       0.53260207
2
Properties=species:S:1:pos:R:3:forces:R:3 energy=-76.55354000687818 pbc="F F F"
Gd       0.00000000       0.00000000       0.00000000       0.00000000       0.00000000      -0.30765525
Gd       0.00000000       0.00000000       2.90101010       0.00000000       0.00000000       0.30765525
2
Properties=species:S:1:pos:R:3:forces:R:3 energy=-76.56440420705965 pbc="F F F"
Gd       0.00000000       0.00000000       0.00000000       0.00000000       0.00000000      -0.05205544
Gd       0.00000000       0.00000000       2.96060606       0.00000000       0.00000000       0.05205544
2
Properties=species:S:1:pos:R:3:forces:R:3 energy=-76.55922970139292 pbc="F F F"
Gd       0.00000000       0.00000000       0.00000000       0.00000000       0.00000000       0.22912821
Gd       0.00000000       0.00000000       3.02020202       0.00000000       0.00000000      -0.22912821
2
Properties=species:S:1:pos:R:3:forces:R:3 energy=-76.5368566571825 pbc="F F F"
Gd       0.00000000       0.00000000       0.00000000       0.00000000       0.00000000       0.52246892
Gd       0.00000000       0.00000000       3.07979798       0.00000000       0.00000000      -0.52246892
2
Properties=species:S:1:pos:R:3:forces:R:3 energy=-76.49701025625022 pbc="F F F"
Gd       0.00000000       0.00000000       0.00000000       0.00000000       0.00000000       0.81302005
Gd       0.00000000       0.00000000       3.13939394       0.00000000       0.00000000      -0.81302005
2
Properties=species:S:1:pos:R:3:forces:R:3 energy=-76.44027015518243 pbc="F F F"
Gd       0.00000000       0.00000000       0.00000000       0.00000000       0.00000000       1.08747816
Gd       0.00000000       0.00000000       3.19898990       0.00000000       0.00000000      -1.08747816
2
Properties=species:S:1:pos:R:3:forces:R:3 energy=-76.36792552683384 pbc="F F F"
Gd       0.00000000       0.00000000       0.00000000       0.00000000       0.00000000       1.33508658
Gd       0.00000000       0.00000000       3.25858586       0.00000000       0.00000000      -1.33508658
2
Properties=species:S:1:pos:R:3:forces:R:3 energy=-76.28183011608667 pbc="F F F"
Gd       0.00000000       0.00000000       0.00000000       0.00000000       0.00000000       1.54795086
Gd       0.00000000       0.00000000       3.31818182       0.00000000       0.00000000      -1.54795086
2
Properties=species:S:1:pos:R:3:forces:R:3 energy=-76.18421911220712 pbc="F F F"
Gd       0.00000000       0.00000000       0.00000000       0.00000000       0.00000000       1.72089493
Gd       0.00000000       0.00000000       3.37777778       0.00000000       0.00000000      -1.72089493
2
Properties=species:S:1:pos:R:3:forces:R:3 energy=-76.07757945547395 pbc="F F F"
Gd       0.00000000       0.00000000       0.00000000       0.00000000       0.00000000       1.85043526
Gd       0.00000000       0.00000000       3.43737374       0.00000000       0.00000000      -1.85043526
2
Properties=species:S:1:pos:R:3:forces:R:3 energy=-75.96458881310973 pbc="F F F"
Gd       0.00000000       0.00000000       0.00000000       0.00000000       0.00000000       1.93333125
Gd       0.00000000       0.00000000       3.49696970       0.00000000       0.00000000      -1.93333125
2
Properties=species:S:1:pos:R:3:forces:R:3 energy=-75.84813846588034 pbc="F F F"
Gd       0.00000000       0.00000000       0.00000000       0.00000000       0.00000000       1.96581721
Gd       0.00000000       0.00000000       3.55656566       0.00000000       0.00000000      -1.96581721
2
Properties=species:S:1:pos:R:3:forces:R:3 energy=-75.73134857321985 pbc="F F F"
Gd       0.00000000       0.00000000       0.00000000       0.00000000       0.00000000       1.94445419
Gd       0.00000000       0.00000000       3.61616162       0.00000000       0.00000000      -1.94445419
2
Properties=species:S:1:pos:R:3:forces:R:3 energy=-75.61746134903568 pbc="F F F"
Gd       0.00000000       0.00000000       0.00000000       0.00000000       0.00000000       1.86860287
Gd       0.00000000       0.00000000       3.67575758       0.00000000       0.00000000      -1.86860287
2
Properties=species:S:1:pos:R:3:forces:R:3 energy=-75.50961219254401 pbc="F F F"
Gd       0.00000000       0.00000000       0.00000000       0.00000000       0.00000000       1.74345183
Gd       0.00000000       0.00000000       3.73535354       0.00000000       0.00000000      -1.74345183
2
Properties=species:S:1:pos:R:3:forces:R:3 energy=-75.41039480486192 pbc="F F F"
Gd       0.00000000       0.00000000       0.00000000       0.00000000       0.00000000       1.58160520
Gd       0.00000000       0.00000000       3.79494949       0.00000000       0.00000000      -1.58160520
2
Properties=species:S:1:pos:R:3:forces:R:3 energy=-75.3214568263455 pbc="F F F"
Gd       0.00000000       0.00000000       0.00000000       0.00000000       0.00000000       1.40164399
Gd       0.00000000       0.00000000       3.85454545       0.00000000       0.00000000      -1.40164399
2
Properties=species:S:1:pos:R:3:forces:R:3 energy=-75.2432785936519 pbc="F F F"
Gd       0.00000000       0.00000000       0.00000000       0.00000000       0.00000000       1.22383118
Gd       0.00000000       0.00000000       3.91414141       0.00000000       0.00000000      -1.22383118
2
Properties=species:S:1:pos:R:3:forces:R:3 energy=-75.17520363514274 pbc="F F F"
Gd       0.00000000       0.00000000       0.00000000       0.00000000       0.00000000       1.06504798
Gd       0.00000000       0.00000000       3.97373737       0.00000000       0.00000000      -1.06504798
2
Properties=species:S:1:pos:R:3:forces:R:3 energy=-75.11574387517572 pbc="F F F"
Gd       0.00000000       0.00000000       0.00000000       0.00000000       0.00000000       0.93578601
Gd       0.00000000       0.00000000       4.03333333       0.00000000       0.00000000      -0.93578601
2
Properties=species:S:1:pos:R:3:forces:R:3 energy=-75.06299924446822 pbc="F F F"
Gd       0.00000000       0.00000000       0.00000000       0.00000000       0.00000000       0.83987713
Gd       0.00000000       0.00000000       4.09292929       0.00000000       0.00000000      -0.83987713
2
Properties=species:S:1:pos:R:3:forces:R:3 energy=-75.01499336078535 pbc="F F F"
Gd       0.00000000       0.00000000       0.00000000       0.00000000       0.00000000       0.77617669
Gd       0.00000000       0.00000000       4.15252525       0.00000000       0.00000000      -0.77617669
2
Properties=species:S:1:pos:R:3:forces:R:3 energy=-74.96992532271821 pbc="F F F"
Gd       0.00000000       0.00000000       0.00000000       0.00000000       0.00000000       0.74052382
Gd       0.00000000       0.00000000       4.21212121       0.00000000       0.00000000      -0.74052382
2
Properties=species:S:1:pos:R:3:forces:R:3 energy=-74.92628413317875 pbc="F F F"
Gd       0.00000000       0.00000000       0.00000000       0.00000000       0.00000000       0.72721994
Gd       0.00000000       0.00000000       4.27171717       0.00000000       0.00000000      -0.72721994
2
Properties=species:S:1:pos:R:3:forces:R:3 energy=-74.8829326322432 pbc="F F F"
Gd       0.00000000       0.00000000       0.00000000       0.00000000       0.00000000       0.72988355
Gd       0.00000000       0.00000000       4.33131313       0.00000000       0.00000000      -0.72988355
2
Properties=species:S:1:pos:R:3:forces:R:3 energy=-74.83910750665537 pbc="F F F"
Gd       0.00000000       0.00000000       0.00000000       0.00000000       0.00000000       0.74186379
Gd       0.00000000       0.00000000       4.39090909       0.00000000       0.00000000      -0.74186379
2
Properties=species:S:1:pos:R:3:forces:R:3 energy=-74.7944574257121 pbc="F F F"
Gd       0.00000000       0.00000000       0.00000000       0.00000000       0.00000000       0.75642526
Gd       0.00000000       0.00000000       4.45050505       0.00000000       0.00000000      -0.75642526
2
Properties=species:S:1:pos:R:3:forces:R:3 energy=-74.74902779197755 pbc="F F F"
Gd       0.00000000       0.00000000       0.00000000       0.00000000       0.00000000       0.76695126
Gd       0.00000000       0.00000000       4.51010101       0.00000000       0.00000000      -0.76695126
2
Properties=species:S:1:pos:R:3:forces:R:3 energy=-74.70324548407814 pbc="F F F"
Gd       0.00000000       0.00000000       0.00000000       0.00000000       0.00000000       0.76736867
Gd       0.00000000       0.00000000       4.56969697       0.00000000       0.00000000      -0.76736867
2
Properties=species:S:1:pos:R:3:forces:R:3 energy=-74.65785783104963 pbc="F F F"
Gd       0.00000000       0.00000000       0.00000000       0.00000000       0.00000000       0.75293559
Gd       0.00000000       0.00000000       4.62929293       0.00000000       0.00000000      -0.75293559
2
Properties=species:S:1:pos:R:3:forces:R:3 energy=-74.6138410469316 pbc="F F F"
Gd       0.00000000       0.00000000       0.00000000       0.00000000       0.00000000       0.72132677
Gd       0.00000000       0.00000000       4.68888889       0.00000000       0.00000000      -0.72132677
2
Properties=species:S:1:pos:R:3:forces:R:3 energy=-74.57220952441449 pbc="F F F"
Gd       0.00000000       0.00000000       0.00000000       0.00000000       0.00000000       0.67343825
Gd       0.00000000       0.00000000       4.74848485       0.00000000       0.00000000      -0.67343825
2
Properties=species:S:1:pos:R:3:forces:R:3 energy=-74.53381744207142 pbc="F F F"
Gd       0.00000000       0.00000000       0.00000000       0.00000000       0.00000000       0.61360699
Gd       0.00000000       0.00000000       4.80808081       0.00000000       0.00000000      -0.61360699
2
Properties=species:S:1:pos:R:3:forces:R:3 energy=-74.49917569373544 pbc="F F F"
Gd       0.00000000       0.00000000       0.00000000       0.00000000       0.00000000       0.54867041
Gd       0.00000000       0.00000000       4.86767677       0.00000000       0.00000000      -0.54867041
2
Properties=species:S:1:pos:R:3:forces:R:3 energy=-74.4683679588241 pbc="F F F"
Gd       0.00000000       0.00000000       0.00000000       0.00000000       0.00000000       0.48621154
Gd       0.00000000       0.00000000       4.92727273       0.00000000       0.00000000      -0.48621154
2
Properties=species:S:1:pos:R:3:forces:R:3 energy=-74.44104306502531 pbc="F F F"
Gd       0.00000000       0.00000000       0.00000000       0.00000000       0.00000000       0.43242583
Gd       0.00000000       0.00000000       4.98686869       0.00000000       0.00000000      -0.43242583
2
Properties=species:S:1:pos:R:3:forces:R:3 energy=-74.41658286190358 pbc="F F F"
Gd       0.00000000       0.00000000       0.00000000       0.00000000       0.00000000       0.39062750
Gd       0.00000000       0.00000000       5.04646465       0.00000000       0.00000000      -0.39062750
2
Properties=species:S:1:pos:R:3:forces:R:3 energy=-74.39424716038907 pbc="F F F"
Gd       0.00000000       0.00000000       0.00000000       0.00000000       0.00000000       0.36073670
Gd       0.00000000       0.00000000       5.10606061       0.00000000       0.00000000      -0.36073670
2
Properties=species:S:1:pos:R:3:forces:R:3 energy=-74.37340263837235 pbc="F F F"
Gd       0.00000000       0.00000000       0.00000000       0.00000000       0.00000000       0.34003839
Gd       0.00000000       0.00000000       5.16565657       0.00000000       0.00000000      -0.34003839
2
Properties=species:S:1:pos:R:3:forces:R:3 energy=-74.35361439343865 pbc="F F F"
Gd       0.00000000       0.00000000       0.00000000       0.00000000       0.00000000       0.32457581
Gd       0.00000000       0.00000000       5.22525253       0.00000000       0.00000000      -0.32457581
2
Properties=species:S:1:pos:R:3:forces:R:3 energy=-74.33468407875316 pbc="F F F"
Gd       0.00000000       0.00000000       0.00000000       0.00000000       0.00000000       0.31059432
Gd       0.00000000       0.00000000       5.28484848       0.00000000       0.00000000      -0.31059432
2
Properties=species:S:1:pos:R:3:forces:R:3 energy=-74.3166117830149 pbc="F F F"
Gd       0.00000000       0.00000000       0.00000000       0.00000000       0.00000000       0.29585177
Gd       0.00000000       0.00000000       5.34444444       0.00000000       0.00000000      -0.29585177
2
Properties=species:S:1:pos:R:3:forces:R:3 energy=-74.29942817268964 pbc="F F F"
Gd       0.00000000       0.00000000       0.00000000       0.00000000       0.00000000       0.28074950
Gd       0.00000000       0.00000000       5.40404040       0.00000000       0.00000000      -0.28074950
2
Properties=species:S:1:pos:R:3:forces:R:3 energy=-74.28313346002149 pbc="F F F"
Gd       0.00000000       0.00000000       0.00000000       0.00000000       0.00000000       0.26587960
Gd       0.00000000       0.00000000       5.46363636       0.00000000       0.00000000      -0.26587960
2
Properties=species:S:1:pos:R:3:forces:R:3 energy=-74.26784236786455 pbc="F F F"
Gd       0.00000000       0.00000000       0.00000000       0.00000000       0.00000000       0.24599375
Gd       0.00000000       0.00000000       5.52323232       0.00000000       0.00000000      -0.24599375
2
Properties=species:S:1:pos:R:3:forces:R:3 energy=-74.2540740561787 pbc="F F F"
Gd       0.00000000       0.00000000       0.00000000       0.00000000       0.00000000       0.21347857
Gd       0.00000000       0.00000000       5.58282828       0.00000000       0.00000000      -0.21347857
2
Properties=species:S:1:pos:R:3:forces:R:3 energy=-74.2426147628336 pbc="F F F"
Gd       0.00000000       0.00000000       0.00000000       0.00000000       0.00000000       0.17057973
Gd       0.00000000       0.00000000       5.64242424       0.00000000       0.00000000      -0.17057973
2
Properties=species:S:1:pos:R:3:forces:R:3 energy=-74.23360994525734 pbc="F F F"
Gd       0.00000000       0.00000000       0.00000000       0.00000000       0.00000000       0.13425627
Gd       0.00000000       0.00000000       5.70202020       0.00000000       0.00000000      -0.13425627
2
Properties=species:S:1:pos:R:3:forces:R:3 energy=-74.22619040842616 pbc="F F F"
Gd       0.00000000       0.00000000       0.00000000       0.00000000       0.00000000       0.11828190
Gd       0.00000000       0.00000000       5.76161616       0.00000000       0.00000000      -0.11828190
2
Properties=species:S:1:pos:R:3:forces:R:3 energy=-74.21939547269008 pbc="F F F"
Gd       0.00000000       0.00000000       0.00000000       0.00000000       0.00000000       0.10723657
Gd       0.00000000       0.00000000       5.82121212       0.00000000       0.00000000      -0.10723657
2
Properties=species:S:1:pos:R:3:forces:R:3 energy=-74.21395061794698 pbc="F F F"
Gd       0.00000000       0.00000000       0.00000000       0.00000000       0.00000000       0.07170415
Gd       0.00000000       0.00000000       5.88080808       0.00000000       0.00000000      -0.07170415
2
Properties=species:S:1:pos:R:3:forces:R:3 energy=-74.21104676784627 pbc="F F F"
Gd       0.00000000       0.00000000       0.00000000       0.00000000       0.00000000       0.02631692
Gd       0.00000000       0.00000000       5.94040404       0.00000000       0.00000000      -0.02631692
2
Properties=species:S:1:pos:R:3:forces:R:3 energy=-74.21025747141758 pbc="F F F"
Gd       0.00000000       0.00000000       0.00000000       0.00000000       0.00000000       0.00676438
Gd       0.00000000       0.00000000       6.00000000       0.00000000       0.00000000      -0.00676438
