2
Properties=species:S:1:pos:R:3:forces:R:3 energy=47293.668866959226 pbc="F F F"
Ge       0.00000000       0.00000000       0.00000000       0.00000000       0.00000000 -479280.06250000
Ge       0.00000000       0.00000000       0.10000000       0.00000000       0.00000000  479280.06250000
2
Properties=species:S:1:pos:R:3:forces:R:3 energy=32345.41496070923 pbc="F F F"
Ge       0.00000000       0.00000000       0.00000000       0.00000000       0.00000000 -130465.07812500
Ge       0.00000000       0.00000000       0.15959596       0.00000000       0.00000000  130465.07812500
2
Properties=species:S:1:pos:R:3:forces:R:3 energy=26205.25675758423 pbc="F F F"
Ge       0.00000000       0.00000000       0.00000000       0.00000000       0.00000000  -96218.42968750
Ge       0.00000000       0.00000000       0.21919192       0.00000000       0.00000000   96218.42968750
2
Properties=species:S:1:pos:R:3:forces:R:3 energy=19456.30558570923 pbc="F F F"
Ge       0.00000000       0.00000000       0.00000000       0.00000000       0.00000000 -136283.15625000
Ge       0.00000000       0.00000000       0.27878788       0.00000000       0.00000000  136283.15625000
2
Properties=species:S:1:pos:R:3:forces:R:3 energy=9905.89738258502 pbc="F F F"
Ge       0.00000000       0.00000000       0.00000000       0.00000000       0.00000000 -178443.06250000
Ge       0.00000000       0.00000000       0.33838384       0.00000000       0.00000000  178443.06250000
2
Properties=species:S:1:pos:R:3:forces:R:3 energy=-359.81184593060397 pbc="F F F"
Ge       0.00000000       0.00000000       0.00000000       0.00000000       0.00000000 -149059.84375000
Ge       0.00000000       0.00000000       0.39797980       0.00000000       0.00000000  149059.84375000
2
Properties=species:S:1:pos:R:3:forces:R:3 energy=-5984.528398664187 pbc="F F F"
Ge       0.00000000       0.00000000       0.00000000       0.00000000       0.00000000  -31043.38671875
Ge       0.00000000       0.00000000       0.45757576       0.00000000       0.00000000   31043.38671875
2
Properties=species:S:1:pos:R:3:forces:R:3 energy=-4326.4224416305615 pbc="F F F"
Ge       0.00000000       0.00000000       0.00000000       0.00000000       0.00000000   63431.16015625
Ge       0.00000000       0.00000000       0.51717172       0.00000000       0.00000000  -63431.16015625
2
Properties=species:S:1:pos:R:3:forces:R:3 energy=-1203.8377248297263 pbc="F F F"
Ge       0.00000000       0.00000000       0.00000000       0.00000000       0.00000000   23759.01367188
Ge       0.00000000       0.00000000       0.57676768       0.00000000       0.00000000  -23759.01367188
2
Properties=species:S:1:pos:R:3:forces:R:3 energy=-495.42784323159384 pbc="F F F"
Ge       0.00000000       0.00000000       0.00000000       0.00000000       0.00000000   -1786.98156738
Ge       0.00000000       0.00000000       0.63636364       0.00000000       0.00000000    1786.98156738
2
Properties=species:S:1:pos:R:3:forces:R:3 energy=-525.0370045974596 pbc="F F F"
Ge       0.00000000       0.00000000       0.00000000       0.00000000       0.00000000    1310.66247559
Ge       0.00000000       0.00000000       0.69595960       0.00000000       0.00000000   -1310.66247559
2
Properties=species:S:1:pos:R:3:forces:R:3 energy=-401.2307301659741 pbc="F F F"
Ge       0.00000000       0.00000000       0.00000000       0.00000000       0.00000000    2090.15429688
Ge       0.00000000       0.00000000       0.75555556       0.00000000       0.00000000   -2090.15429688
2
Properties=species:S:1:pos:R:3:forces:R:3 energy=-292.3268910308873 pbc="F F F"
Ge       0.00000000       0.00000000       0.00000000       0.00000000       0.00000000    1570.70703125
Ge       0.00000000       0.00000000       0.81515152       0.00000000       0.00000000   -1570.70703125
2
Properties=species:S:1:pos:R:3:forces:R:3 energy=-211.05520825678343 pbc="F F F"
Ge       0.00000000       0.00000000       0.00000000       0.00000000       0.00000000    1219.26770020
Ge       0.00000000       0.00000000       0.87474747       0.00000000       0.00000000   -1219.26770020
2
Properties=species:S:1:pos:R:3:forces:R:3 energy=-144.51126289439023 pbc="F F F"
Ge       0.00000000       0.00000000       0.00000000       0.00000000       0.00000000    1109.66369629
Ge       0.00000000       0.00000000       0.93434343       0.00000000       0.00000000   -1109.66369629
2
Properties=species:S:1:pos:R:3:forces:R:3 energy=-79.4502734456073 pbc="F F F"
Ge       0.00000000       0.00000000       0.00000000       0.00000000       0.00000000    1014.58416748
Ge       0.00000000       0.00000000       0.99393939       0.00000000       0.00000000   -1014.58416748
2
Properties=species:S:1:pos:R:3:forces:R:3 energy=-33.787500219832324 pbc="F F F"
Ge       0.00000000       0.00000000       0.00000000       0.00000000       0.00000000     498.79794312
Ge       0.00000000       0.00000000       1.05353535       0.00000000       0.00000000    -498.79794312
2
Properties=species:S:1:pos:R:3:forces:R:3 energy=-16.885142994846827 pbc="F F F"
Ge       0.00000000       0.00000000       0.00000000       0.00000000       0.00000000      -2.37416983
Ge       0.00000000       0.00000000       1.11313131       0.00000000       0.00000000       2.37416983
2
Properties=species:S:1:pos:R:3:forces:R:3 energy=-14.983506708838718 pbc="F F F"
Ge       0.00000000       0.00000000       0.00000000       0.00000000       0.00000000      94.97009277
Ge       0.00000000       0.00000000       1.17272727       0.00000000       0.00000000     -94.97009277
2
Properties=species:S:1:pos:R:3:forces:R:3 energy=-9.524678526558391 pbc="F F F"
Ge       0.00000000       0.00000000       0.00000000       0.00000000       0.00000000      65.15438843
Ge       0.00000000       0.00000000       1.23232323       0.00000000       0.00000000     -65.15438843
2
Properties=species:S:1:pos:R:3:forces:R:3 energy=-7.664572742767141 pbc="F F F"
Ge       0.00000000       0.00000000       0.00000000       0.00000000       0.00000000       5.72807360
Ge       0.00000000       0.00000000       1.29191919       0.00000000       0.00000000      -5.72807360
2
Properties=species:S:1:pos:R:3:forces:R:3 energy=-8.204931901672438 pbc="F F F"
Ge       0.00000000       0.00000000       0.00000000       0.00000000       0.00000000     -21.57541275
Ge       0.00000000       0.00000000       1.35151515       0.00000000       0.00000000      21.57541275
2
Properties=species:S:1:pos:R:3:forces:R:3 energy=-9.98295328883128 pbc="F F F"
Ge       0.00000000       0.00000000       0.00000000       0.00000000       0.00000000     -36.15549469
Ge       0.00000000       0.00000000       1.41111111       0.00000000       0.00000000      36.15549469
2
Properties=species:S:1:pos:R:3:forces:R:3 energy=-12.323514628149146 pbc="F F F"
Ge       0.00000000       0.00000000       0.00000000       0.00000000       0.00000000     -41.07869339
Ge       0.00000000       0.00000000       1.47070707       0.00000000       0.00000000      41.07869339
2
Properties=species:S:1:pos:R:3:forces:R:3 energy=-14.744589799668459 pbc="F F F"
Ge       0.00000000       0.00000000       0.00000000       0.00000000       0.00000000     -39.27849197
Ge       0.00000000       0.00000000       1.53030303       0.00000000       0.00000000      39.27849197
2
Properties=species:S:1:pos:R:3:forces:R:3 energy=-16.942016759722577 pbc="F F F"
Ge       0.00000000       0.00000000       0.00000000       0.00000000       0.00000000     -34.27563858
Ge       0.00000000       0.00000000       1.58989899       0.00000000       0.00000000      34.27563858
2
Properties=species:S:1:pos:R:3:forces:R:3 energy=-18.82557407397985 pbc="F F F"
Ge       0.00000000       0.00000000       0.00000000       0.00000000       0.00000000     -28.91789818
Ge       0.00000000       0.00000000       1.64949495       0.00000000       0.00000000      28.91789818
2
Properties=species:S:1:pos:R:3:forces:R:3 energy=-20.37729640428502 pbc="F F F"
Ge       0.00000000       0.00000000       0.00000000       0.00000000       0.00000000     -22.98982048
Ge       0.00000000       0.00000000       1.70909091       0.00000000       0.00000000      22.98982048
2
Properties=species:S:1:pos:R:3:forces:R:3 energy=-21.548002733670838 pbc="F F F"
Ge       0.00000000       0.00000000       0.00000000       0.00000000       0.00000000     -16.24286461
Ge       0.00000000       0.00000000       1.76868687       0.00000000       0.00000000      16.24286461
2
Properties=species:S:1:pos:R:3:forces:R:3 energy=-22.325178919247023 pbc="F F F"
Ge       0.00000000       0.00000000       0.00000000       0.00000000       0.00000000     -10.07493687
Ge       0.00000000       0.00000000       1.82828283       0.00000000       0.00000000      10.07493687
2
Properties=species:S:1:pos:R:3:forces:R:3 energy=-22.781313720461032 pbc="F F F"
Ge       0.00000000       0.00000000       0.00000000       0.00000000       0.00000000      -5.46230364
Ge       0.00000000       0.00000000       1.88787879       0.00000000       0.00000000       5.46230364
2
Properties=species:S:1:pos:R:3:forces:R:3 energy=-22.992474087547222 pbc="F F F"
Ge       0.00000000       0.00000000       0.00000000       0.00000000       0.00000000      -1.69734859
Ge       0.00000000       0.00000000       1.94747475       0.00000000       0.00000000       1.69734859
2
Properties=species:S:1:pos:R:3:forces:R:3 energy=-22.9971598368198 pbc="F F F"
Ge       0.00000000       0.00000000       0.00000000       0.00000000       0.00000000       1.32059705
Ge       0.00000000       0.00000000       2.00707071       0.00000000       0.00000000      -1.32059705
2
Properties=species:S:1:pos:R:3:forces:R:3 energy=-22.87759678447038 pbc="F F F"
Ge       0.00000000       0.00000000       0.00000000       0.00000000       0.00000000       2.23049164
Ge       0.00000000       0.00000000       2.06666667       0.00000000       0.00000000      -2.23049164
2
Properties=species:S:1:pos:R:3:forces:R:3 energy=-22.78532954339546 pbc="F F F"
Ge       0.00000000       0.00000000       0.00000000       0.00000000       0.00000000       0.51780951
Ge       0.00000000       0.00000000       2.12626263       0.00000000       0.00000000      -0.51780951
2
Properties=species:S:1:pos:R:3:forces:R:3 energy=-22.831066455619457 pbc="F F F"
Ge       0.00000000       0.00000000       0.00000000       0.00000000       0.00000000      -1.93561268
Ge       0.00000000       0.00000000       2.18585859       0.00000000       0.00000000       1.93561268
2
Properties=species:S:1:pos:R:3:forces:R:3 energy=-22.981558800341045 pbc="F F F"
Ge       0.00000000       0.00000000       0.00000000       0.00000000       0.00000000      -2.75316310
Ge       0.00000000       0.00000000       2.24545455       0.00000000       0.00000000       2.75316310
2
Properties=species:S:1:pos:R:3:forces:R:3 energy=-23.124380104059767 pbc="F F F"
Ge       0.00000000       0.00000000       0.00000000       0.00000000       0.00000000      -1.86791730
Ge       0.00000000       0.00000000       2.30505051       0.00000000       0.00000000       1.86791730
2
Properties=species:S:1:pos:R:3:forces:R:3 energy=-23.19791771867347 pbc="F F F"
Ge       0.00000000       0.00000000       0.00000000       0.00000000       0.00000000      -0.63368618
Ge       0.00000000       0.00000000       2.36464646       0.00000000       0.00000000       0.63368618
2
Properties=species:S:1:pos:R:3:forces:R:3 energy=-23.207903856428405 pbc="F F F"
Ge       0.00000000       0.00000000       0.00000000       0.00000000       0.00000000       0.22411387
Ge       0.00000000       0.00000000       2.42424242       0.00000000       0.00000000      -0.22411387
2
Properties=species:S:1:pos:R:3:forces:R:3 energy=-23.178396863896438 pbc="F F F"
Ge       0.00000000       0.00000000       0.00000000       0.00000000       0.00000000       0.72550571
Ge       0.00000000       0.00000000       2.48383838       0.00000000       0.00000000      -0.72550571
2
Properties=species:S:1:pos:R:3:forces:R:3 energy=-23.123690111261013 pbc="F F F"
Ge       0.00000000       0.00000000       0.00000000       0.00000000       0.00000000       1.11132348
Ge       0.00000000       0.00000000       2.54343434       0.00000000       0.00000000      -1.11132348
2
Properties=species:S:1:pos:R:3:forces:R:3 energy=-23.0442196655838 pbc="F F F"
Ge       0.00000000       0.00000000       0.00000000       0.00000000       0.00000000       1.57693624
Ge       0.00000000       0.00000000       2.60303030       0.00000000       0.00000000      -1.57693624
2
Properties=species:S:1:pos:R:3:forces:R:3 energy=-22.933796585865412 pbc="F F F"
Ge       0.00000000       0.00000000       0.00000000       0.00000000       0.00000000       2.13255405
Ge       0.00000000       0.00000000       2.66262626       0.00000000       0.00000000      -2.13255405
2
Properties=species:S:1:pos:R:3:forces:R:3 energy=-22.79184305838546 pbc="F F F"
Ge       0.00000000       0.00000000       0.00000000       0.00000000       0.00000000       2.59701395
Ge       0.00000000       0.00000000       2.72222222       0.00000000       0.00000000      -2.59701395
2
Properties=species:S:1:pos:R:3:forces:R:3 energy=-22.62992956075701 pbc="F F F"
Ge       0.00000000       0.00000000       0.00000000       0.00000000       0.00000000       2.78245044
Ge       0.00000000       0.00000000       2.78181818       0.00000000       0.00000000      -2.78245044
2
Properties=species:S:1:pos:R:3:forces:R:3 energy=-22.466159632790156 pbc="F F F"
Ge       0.00000000       0.00000000       0.00000000       0.00000000       0.00000000       2.67384291
Ge       0.00000000       0.00000000       2.84141414       0.00000000       0.00000000      -2.67384291
2
Properties=species:S:1:pos:R:3:forces:R:3 energy=-22.314063255871314 pbc="F F F"
Ge       0.00000000       0.00000000       0.00000000       0.00000000       0.00000000       2.42337441
Ge       0.00000000       0.00000000       2.90101010       0.00000000       0.00000000      -2.42337441
2
Properties=species:S:1:pos:R:3:forces:R:3 energy=-22.17650547583708 pbc="F F F"
Ge       0.00000000       0.00000000       0.00000000       0.00000000       0.00000000       2.20984674
Ge       0.00000000       0.00000000       2.96060606       0.00000000       0.00000000      -2.20984674
2
Properties=species:S:1:pos:R:3:forces:R:3 energy=-22.04827963679374 pbc="F F F"
Ge       0.00000000       0.00000000       0.00000000       0.00000000       0.00000000       2.11231112
Ge       0.00000000       0.00000000       3.02020202       0.00000000       0.00000000      -2.11231112
2
Properties=species:S:1:pos:R:3:forces:R:3 energy=-21.923112832152487 pbc="F F F"
Ge       0.00000000       0.00000000       0.00000000       0.00000000       0.00000000       2.09497476
Ge       0.00000000       0.00000000       3.07979798       0.00000000       0.00000000      -2.09497476
2
Properties=species:S:1:pos:R:3:forces:R:3 energy=-21.798549287657096 pbc="F F F"
Ge       0.00000000       0.00000000       0.00000000       0.00000000       0.00000000       2.08009648
Ge       0.00000000       0.00000000       3.13939394       0.00000000       0.00000000      -2.08009648
2
Properties=species:S:1:pos:R:3:forces:R:3 energy=-21.67614125308357 pbc="F F F"
Ge       0.00000000       0.00000000       0.00000000       0.00000000       0.00000000       2.01864505
Ge       0.00000000       0.00000000       3.19898990       0.00000000       0.00000000      -2.01864505
2
Properties=species:S:1:pos:R:3:forces:R:3 energy=-21.558932013555204 pbc="F F F"
Ge       0.00000000       0.00000000       0.00000000       0.00000000       0.00000000       1.90840602
Ge       0.00000000       0.00000000       3.25858586       0.00000000       0.00000000      -1.90840602
2
Properties=species:S:1:pos:R:3:forces:R:3 energy=-21.449161371631753 pbc="F F F"
Ge       0.00000000       0.00000000       0.00000000       0.00000000       0.00000000       1.77380538
Ge       0.00000000       0.00000000       3.31818182       0.00000000       0.00000000      -1.77380538
2
Properties=species:S:1:pos:R:3:forces:R:3 energy=-21.347461723459514 pbc="F F F"
Ge       0.00000000       0.00000000       0.00000000       0.00000000       0.00000000       1.64116132
Ge       0.00000000       0.00000000       3.37777778       0.00000000       0.00000000      -1.64116132
2
Properties=species:S:1:pos:R:3:forces:R:3 energy=-21.253179727208384 pbc="F F F"
Ge       0.00000000       0.00000000       0.00000000       0.00000000       0.00000000       1.52659237
Ge       0.00000000       0.00000000       3.43737374       0.00000000       0.00000000      -1.52659237
2
Properties=species:S:1:pos:R:3:forces:R:3 energy=-21.165035219796675 pbc="F F F"
Ge       0.00000000       0.00000000       0.00000000       0.00000000       0.00000000       1.43541026
Ge       0.00000000       0.00000000       3.49696970       0.00000000       0.00000000      -1.43541026
2
Properties=species:S:1:pos:R:3:forces:R:3 energy=-21.081655748889673 pbc="F F F"
Ge       0.00000000       0.00000000       0.00000000       0.00000000       0.00000000       1.36594176
Ge       0.00000000       0.00000000       3.55656566       0.00000000       0.00000000      -1.36594176
2
Properties=species:S:1:pos:R:3:forces:R:3 energy=-21.001891618045384 pbc="F F F"
Ge       0.00000000       0.00000000       0.00000000       0.00000000       0.00000000       1.31319785
Ge       0.00000000       0.00000000       3.61616162       0.00000000       0.00000000      -1.31319785
2
Properties=species:S:1:pos:R:3:forces:R:3 energy=-20.92492283920605 pbc="F F F"
Ge       0.00000000       0.00000000       0.00000000       0.00000000       0.00000000       1.27116227
Ge       0.00000000       0.00000000       3.67575758       0.00000000       0.00000000      -1.27116227
2
Properties=species:S:1:pos:R:3:forces:R:3 energy=-20.85028406523869 pbc="F F F"
Ge       0.00000000       0.00000000       0.00000000       0.00000000       0.00000000       1.23400986
Ge       0.00000000       0.00000000       3.73535354       0.00000000       0.00000000      -1.23400986
2
Properties=species:S:1:pos:R:3:forces:R:3 energy=-20.77783979202699 pbc="F F F"
Ge       0.00000000       0.00000000       0.00000000       0.00000000       0.00000000       1.19683433
Ge       0.00000000       0.00000000       3.79494949       0.00000000       0.00000000      -1.19683433
2
Properties=species:S:1:pos:R:3:forces:R:3 energy=-20.707704348823192 pbc="F F F"
Ge       0.00000000       0.00000000       0.00000000       0.00000000       0.00000000       1.15600181
Ge       0.00000000       0.00000000       3.85454545       0.00000000       0.00000000      -1.15600181
2
Properties=species:S:1:pos:R:3:forces:R:3 energy=-20.64017131842911 pbc="F F F"
Ge       0.00000000       0.00000000       0.00000000       0.00000000       0.00000000       1.10930431
Ge       0.00000000       0.00000000       3.91414141       0.00000000       0.00000000      -1.10930431
2
Properties=species:S:1:pos:R:3:forces:R:3 energy=-20.57561819748293 pbc="F F F"
Ge       0.00000000       0.00000000       0.00000000       0.00000000       0.00000000       1.05584955
Ge       0.00000000       0.00000000       3.97373737       0.00000000       0.00000000      -1.05584955
2
Properties=species:S:1:pos:R:3:forces:R:3 energy=-20.514452998617063 pbc="F F F"
Ge       0.00000000       0.00000000       0.00000000       0.00000000       0.00000000       0.99582314
Ge       0.00000000       0.00000000       4.03333333       0.00000000       0.00000000      -0.99582314
2
Properties=species:S:1:pos:R:3:forces:R:3 energy=-20.457036065795236 pbc="F F F"
Ge       0.00000000       0.00000000       0.00000000       0.00000000       0.00000000       0.93018866
Ge       0.00000000       0.00000000       4.09292929       0.00000000       0.00000000      -0.93018866
2
Properties=species:S:1:pos:R:3:forces:R:3 energy=-20.40366481552347 pbc="F F F"
Ge       0.00000000       0.00000000       0.00000000       0.00000000       0.00000000       0.86039901
Ge       0.00000000       0.00000000       4.15252525       0.00000000       0.00000000      -0.86039901
2
Properties=species:S:1:pos:R:3:forces:R:3 energy=-20.354533697575906 pbc="F F F"
Ge       0.00000000       0.00000000       0.00000000       0.00000000       0.00000000       0.78817606
Ge       0.00000000       0.00000000       4.21212121       0.00000000       0.00000000      -0.78817606
2
Properties=species:S:1:pos:R:3:forces:R:3 energy=-20.309732287646202 pbc="F F F"
Ge       0.00000000       0.00000000       0.00000000       0.00000000       0.00000000       0.71534598
Ge       0.00000000       0.00000000       4.27171717       0.00000000       0.00000000      -0.71534598
2
Properties=species:S:1:pos:R:3:forces:R:3 energy=-20.269245293683166 pbc="F F F"
Ge       0.00000000       0.00000000       0.00000000       0.00000000       0.00000000       0.64370334
Ge       0.00000000       0.00000000       4.33131313       0.00000000       0.00000000      -0.64370334
2
Properties=species:S:1:pos:R:3:forces:R:3 energy=-20.23295258440115 pbc="F F F"
Ge       0.00000000       0.00000000       0.00000000       0.00000000       0.00000000       0.57487440
Ge       0.00000000       0.00000000       4.39090909       0.00000000       0.00000000      -0.57487440
2
Properties=species:S:1:pos:R:3:forces:R:3 energy=-20.20064249003533 pbc="F F F"
Ge       0.00000000       0.00000000       0.00000000       0.00000000       0.00000000       0.51018095
Ge       0.00000000       0.00000000       4.45050505       0.00000000       0.00000000      -0.51018095
2
Properties=species:S:1:pos:R:3:forces:R:3 energy=-20.172042384860195 pbc="F F F"
Ge       0.00000000       0.00000000       0.00000000       0.00000000       0.00000000       0.45052525
Ge       0.00000000       0.00000000       4.51010101       0.00000000       0.00000000      -0.45052525
2
Properties=species:S:1:pos:R:3:forces:R:3 energy=-20.146835815313356 pbc="F F F"
Ge       0.00000000       0.00000000       0.00000000       0.00000000       0.00000000       0.39626876
Ge       0.00000000       0.00000000       4.56969697       0.00000000       0.00000000      -0.39626876
2
Properties=species:S:1:pos:R:3:forces:R:3 energy=-20.124706397524516 pbc="F F F"
Ge       0.00000000       0.00000000       0.00000000       0.00000000       0.00000000       0.34724212
Ge       0.00000000       0.00000000       4.62929293       0.00000000       0.00000000      -0.34724212
2
Properties=species:S:1:pos:R:3:forces:R:3 energy=-20.105356873378774 pbc="F F F"
Ge       0.00000000       0.00000000       0.00000000       0.00000000       0.00000000       0.30279779
Ge       0.00000000       0.00000000       4.68888889       0.00000000       0.00000000      -0.30279779
2
Properties=species:S:1:pos:R:3:forces:R:3 energy=-20.08854154732271 pbc="F F F"
Ge       0.00000000       0.00000000       0.00000000       0.00000000       0.00000000       0.26198778
Ge       0.00000000       0.00000000       4.74848485       0.00000000       0.00000000      -0.26198778
2
Properties=species:S:1:pos:R:3:forces:R:3 energy=-20.07407771224121 pbc="F F F"
Ge       0.00000000       0.00000000       0.00000000       0.00000000       0.00000000       0.22384740
Ge       0.00000000       0.00000000       4.80808081       0.00000000       0.00000000      -0.22384740
2
Properties=species:S:1:pos:R:3:forces:R:3 energy=-20.061822785032533 pbc="F F F"
Ge       0.00000000       0.00000000       0.00000000       0.00000000       0.00000000       0.18767479
Ge       0.00000000       0.00000000       4.86767677       0.00000000       0.00000000      -0.18767479
2
Properties=species:S:1:pos:R:3:forces:R:3 energy=-20.051672381836667 pbc="F F F"
Ge       0.00000000       0.00000000       0.00000000       0.00000000       0.00000000       0.15327983
Ge       0.00000000       0.00000000       4.92727273       0.00000000       0.00000000      -0.15327983
2
Properties=species:S:1:pos:R:3:forces:R:3 energy=-20.043510713507615 pbc="F F F"
Ge       0.00000000       0.00000000       0.00000000       0.00000000       0.00000000       0.12103461
Ge       0.00000000       0.00000000       4.98686869       0.00000000       0.00000000      -0.12103461
2
Properties=species:S:1:pos:R:3:forces:R:3 energy=-20.037187710893058 pbc="F F F"
Ge       0.00000000       0.00000000       0.00000000       0.00000000       0.00000000       0.09177034
Ge       0.00000000       0.00000000       5.04646465       0.00000000       0.00000000      -0.09177034
2
Properties=species:S:1:pos:R:3:forces:R:3 energy=-20.032492294235055 pbc="F F F"
Ge       0.00000000       0.00000000       0.00000000       0.00000000       0.00000000       0.06654555
Ge       0.00000000       0.00000000       5.10606061       0.00000000       0.00000000      -0.06654555
2
Properties=species:S:1:pos:R:3:forces:R:3 energy=-20.02915238584132 pbc="F F F"
Ge       0.00000000       0.00000000       0.00000000       0.00000000       0.00000000       0.04649424
Ge       0.00000000       0.00000000       5.16565657       0.00000000       0.00000000      -0.04649424
2
Properties=species:S:1:pos:R:3:forces:R:3 energy=-20.026827257723983 pbc="F F F"
Ge       0.00000000       0.00000000       0.00000000       0.00000000       0.00000000       0.03266235
Ge       0.00000000       0.00000000       5.22525253       0.00000000       0.00000000      -0.03266235
2
Properties=species:S:1:pos:R:3:forces:R:3 energy=-20.025124691401647 pbc="F F F"
Ge       0.00000000       0.00000000       0.00000000       0.00000000       0.00000000       0.02556952
Ge       0.00000000       0.00000000       5.28484848       0.00000000       0.00000000      -0.02556952
2
Properties=species:S:1:pos:R:3:forces:R:3 energy=-20.02366392119622 pbc="F F F"
Ge       0.00000000       0.00000000       0.00000000       0.00000000       0.00000000       0.02414293
Ge       0.00000000       0.00000000       5.34444444       0.00000000       0.00000000      -0.02414293
2
Properties=species:S:1:pos:R:3:forces:R:3 energy=-20.022212937199953 pbc="F F F"
Ge       0.00000000       0.00000000       0.00000000       0.00000000       0.00000000       0.02439427
Ge       0.00000000       0.00000000       5.40404040       0.00000000       0.00000000      -0.02439427
2
Properties=species:S:1:pos:R:3:forces:R:3 energy=-20.020825825860346 pbc="F F F"
Ge       0.00000000       0.00000000       0.00000000       0.00000000       0.00000000       0.02149877
Ge       0.00000000       0.00000000       5.46363636       0.00000000       0.00000000      -0.02149877
2
Properties=species:S:1:pos:R:3:forces:R:3 energy=-20.019652009378323 pbc="F F F"
Ge       0.00000000       0.00000000       0.00000000       0.00000000       0.00000000       0.01881288
Ge       0.00000000       0.00000000       5.52323232       0.00000000       0.00000000      -0.01881288
2
Properties=species:S:1:pos:R:3:forces:R:3 energy=-20.018388841402338 pbc="F F F"
Ge       0.00000000       0.00000000       0.00000000       0.00000000       0.00000000       0.02518368
Ge       0.00000000       0.00000000       5.58282828       0.00000000       0.00000000      -0.02518368
2
Properties=species:S:1:pos:R:3:forces:R:3 energy=-20.016569604000654 pbc="F F F"
Ge       0.00000000       0.00000000       0.00000000       0.00000000       0.00000000       0.03547395
Ge       0.00000000       0.00000000       5.64242424       0.00000000       0.00000000      -0.03547395
2
Properties=species:S:1:pos:R:3:forces:R:3 energy=-20.01429592914035 pbc="F F F"
Ge       0.00000000       0.00000000       0.00000000       0.00000000       0.00000000       0.03933920
Ge       0.00000000       0.00000000       5.70202020       0.00000000       0.00000000      -0.03933920
2
Properties=species:S:1:pos:R:3:forces:R:3 energy=-20.012026072297687 pbc="F F F"
Ge       0.00000000       0.00000000       0.00000000       0.00000000       0.00000000       0.03619375
Ge       0.00000000       0.00000000       5.76161616       0.00000000       0.00000000      -0.03619375
2
Properties=species:S:1:pos:R:3:forces:R:3 energy=-20.01002560001164 pbc="F F F"
Ge       0.00000000       0.00000000       0.00000000       0.00000000       0.00000000       0.03045395
Ge       0.00000000       0.00000000       5.82121212       0.00000000       0.00000000      -0.03045395
2
Properties=species:S:1:pos:R:3:forces:R:3 energy=-20.008495179074473 pbc="F F F"
Ge       0.00000000       0.00000000       0.00000000       0.00000000       0.00000000       0.02025815
Ge       0.00000000       0.00000000       5.88080808       0.00000000       0.00000000      -0.02025815
2
Properties=species:S:1:pos:R:3:forces:R:3 energy=-20.007646859389656 pbc="F F F"
Ge       0.00000000       0.00000000       0.00000000       0.00000000       0.00000000       0.00842247
Ge       0.00000000       0.00000000       5.94040404       0.00000000       0.00000000      -0.00842247
2
Properties=species:S:1:pos:R:3:forces:R:3 energy=-20.00734932850899 pbc="F F F"
Ge       0.00000000       0.00000000       0.00000000       0.00000000       0.00000000       0.00325047
Ge       0.00000000       0.00000000       6.00000000       0.00000000       0.00000000      -0.00325047
