2
Properties=species:S:1:pos:R:3:forces:R:3 energy=4562.140049073105 pbc="F F F"
H        0.00000000       0.00000000       0.00000000       0.00000000       0.00000000  -16451.37500000
H        0.00000000       0.00000000       0.10000000       0.00000000       0.00000000   16451.37500000
2
Properties=species:S:1:pos:R:3:forces:R:3 energy=2602.8827248543544 pbc="F F F"
H        0.00000000       0.00000000       0.00000000       0.00000000       0.00000000  -60856.30468750
H        0.00000000       0.00000000       0.15959596       0.00000000       0.00000000   60856.30468750
2
Properties=species:S:1:pos:R:3:forces:R:3 energy=965.3692360848232 pbc="F F F"
H        0.00000000       0.00000000       0.00000000       0.00000000       0.00000000  -34372.07812500
H        0.00000000       0.00000000       0.21919192       0.00000000       0.00000000   34372.07812500
2
Properties=species:S:1:pos:R:3:forces:R:3 energy=2.918025586112377 pbc="F F F"
H        0.00000000       0.00000000       0.00000000       0.00000000       0.00000000    -795.16882324
H        0.00000000       0.00000000       0.27878788       0.00000000       0.00000000     795.16882324
2
Properties=species:S:1:pos:R:3:forces:R:3 energy=2.02628383358686 pbc="F F F"
H        0.00000000       0.00000000       0.00000000       0.00000000       0.00000000     -17.37995529
H        0.00000000       0.00000000       0.33838384       0.00000000       0.00000000      17.37995529
2
Properties=species:S:1:pos:R:3:forces:R:3 energy=-0.9386453890777703 pbc="F F F"
H        0.00000000       0.00000000       0.00000000       0.00000000       0.00000000     -60.21366501
H        0.00000000       0.00000000       0.39797980       0.00000000       0.00000000      60.21366501
2
Properties=species:S:1:pos:R:3:forces:R:3 energy=-3.5309108752010276 pbc="F F F"
H        0.00000000       0.00000000       0.00000000       0.00000000       0.00000000     -27.35368729
H        0.00000000       0.00000000       0.45757576       0.00000000       0.00000000      27.35368729
2
Properties=species:S:1:pos:R:3:forces:R:3 energy=-4.853342917656168 pbc="F F F"
H        0.00000000       0.00000000       0.00000000       0.00000000       0.00000000     -21.24494743
H        0.00000000       0.00000000       0.51717172       0.00000000       0.00000000      21.24494743
2
Properties=species:S:1:pos:R:3:forces:R:3 energy=-5.93204492541414 pbc="F F F"
H        0.00000000       0.00000000       0.00000000       0.00000000       0.00000000     -14.05805302
H        0.00000000       0.00000000       0.57676768       0.00000000       0.00000000      14.05805302
2
Properties=species:S:1:pos:R:3:forces:R:3 energy=-6.551008493771943 pbc="F F F"
H        0.00000000       0.00000000       0.00000000       0.00000000       0.00000000      -7.21209192
H        0.00000000       0.00000000       0.63636364       0.00000000       0.00000000       7.21209192
2
Properties=species:S:1:pos:R:3:forces:R:3 energy=-6.816597431671735 pbc="F F F"
H        0.00000000       0.00000000       0.00000000       0.00000000       0.00000000      -1.97382808
H        0.00000000       0.00000000       0.69595960       0.00000000       0.00000000       1.97382808
2
Properties=species:S:1:pos:R:3:forces:R:3 energy=-6.840205861499665 pbc="F F F"
H        0.00000000       0.00000000       0.00000000       0.00000000       0.00000000       0.73272586
H        0.00000000       0.00000000       0.75555556       0.00000000       0.00000000      -0.73272586
2
Properties=species:S:1:pos:R:3:forces:R:3 energy=-6.764184145647422 pbc="F F F"
H        0.00000000       0.00000000       0.00000000       0.00000000       0.00000000       1.72228599
H        0.00000000       0.00000000       0.81515152       0.00000000       0.00000000      -1.72228599
2
Properties=species:S:1:pos:R:3:forces:R:3 energy=-6.628525746367808 pbc="F F F"
H        0.00000000       0.00000000       0.00000000       0.00000000       0.00000000       2.91928625
H        0.00000000       0.00000000       0.87474747       0.00000000       0.00000000      -2.91928625
2
Properties=species:S:1:pos:R:3:forces:R:3 energy=-6.415006150092544 pbc="F F F"
H        0.00000000       0.00000000       0.00000000       0.00000000       0.00000000       4.18515778
H        0.00000000       0.00000000       0.93434343       0.00000000       0.00000000      -4.18515778
2
Properties=species:S:1:pos:R:3:forces:R:3 energy=-6.139893249192209 pbc="F F F"
H        0.00000000       0.00000000       0.00000000       0.00000000       0.00000000       4.95304060
H        0.00000000       0.00000000       0.99393939       0.00000000       0.00000000      -4.95304060
2
Properties=species:S:1:pos:R:3:forces:R:3 energy=-5.83441373454166 pbc="F F F"
H        0.00000000       0.00000000       0.00000000       0.00000000       0.00000000       5.25330734
H        0.00000000       0.00000000       1.05353535       0.00000000       0.00000000      -5.25330734
2
Properties=species:S:1:pos:R:3:forces:R:3 energy=-5.513141220660154 pbc="F F F"
H        0.00000000       0.00000000       0.00000000       0.00000000       0.00000000       5.55506086
H        0.00000000       0.00000000       1.11313131       0.00000000       0.00000000      -5.55506086
2
Properties=species:S:1:pos:R:3:forces:R:3 energy=-5.174584933675575 pbc="F F F"
H        0.00000000       0.00000000       0.00000000       0.00000000       0.00000000       5.72112894
H        0.00000000       0.00000000       1.17272727       0.00000000       0.00000000      -5.72112894
2
Properties=species:S:1:pos:R:3:forces:R:3 energy=-4.845500776224998 pbc="F F F"
H        0.00000000       0.00000000       0.00000000       0.00000000       0.00000000       5.21050406
H        0.00000000       0.00000000       1.23232323       0.00000000       0.00000000      -5.21050406
2
Properties=species:S:1:pos:R:3:forces:R:3 energy=-4.56065487150331 pbc="F F F"
H        0.00000000       0.00000000       0.00000000       0.00000000       0.00000000       4.34960699
H        0.00000000       0.00000000       1.29191919       0.00000000       0.00000000      -4.34960699
2
Properties=species:S:1:pos:R:3:forces:R:3 energy=-4.3213269266201495 pbc="F F F"
H        0.00000000       0.00000000       0.00000000       0.00000000       0.00000000       3.75923395
H        0.00000000       0.00000000       1.35151515       0.00000000       0.00000000      -3.75923395
2
Properties=species:S:1:pos:R:3:forces:R:3 energy=-4.103290421204543 pbc="F F F"
H        0.00000000       0.00000000       0.00000000       0.00000000       0.00000000       3.62205124
H        0.00000000       0.00000000       1.41111111       0.00000000       0.00000000      -3.62205124
2
Properties=species:S:1:pos:R:3:forces:R:3 energy=-3.885018124902884 pbc="F F F"
H        0.00000000       0.00000000       0.00000000       0.00000000       0.00000000       3.71453571
H        0.00000000       0.00000000       1.47070707       0.00000000       0.00000000      -3.71453571
2
Properties=species:S:1:pos:R:3:forces:R:3 energy=-3.6618437257180743 pbc="F F F"
H        0.00000000       0.00000000       0.00000000       0.00000000       0.00000000       3.74782348
H        0.00000000       0.00000000       1.53030303       0.00000000       0.00000000      -3.74782348
2
Properties=species:S:1:pos:R:3:forces:R:3 energy=-3.442384142788291 pbc="F F F"
H        0.00000000       0.00000000       0.00000000       0.00000000       0.00000000       3.58123446
H        0.00000000       0.00000000       1.58989899       0.00000000       0.00000000      -3.58123446
2
Properties=species:S:1:pos:R:3:forces:R:3 energy=-3.2387905987060757 pbc="F F F"
H        0.00000000       0.00000000       0.00000000       0.00000000       0.00000000       3.22550201
H        0.00000000       0.00000000       1.64949495       0.00000000       0.00000000      -3.22550201
2
Properties=species:S:1:pos:R:3:forces:R:3 energy=-3.060115819795437 pbc="F F F"
H        0.00000000       0.00000000       0.00000000       0.00000000       0.00000000       2.75950074
H        0.00000000       0.00000000       1.70909091       0.00000000       0.00000000      -2.75950074
2
Properties=species:S:1:pos:R:3:forces:R:3 energy=-2.910442690070407 pbc="F F F"
H        0.00000000       0.00000000       0.00000000       0.00000000       0.00000000       2.26420403
H        0.00000000       0.00000000       1.76868687       0.00000000       0.00000000      -2.26420403
2
Properties=species:S:1:pos:R:3:forces:R:3 energy=-2.789684623593016 pbc="F F F"
H        0.00000000       0.00000000       0.00000000       0.00000000       0.00000000       1.79607260
H        0.00000000       0.00000000       1.82828283       0.00000000       0.00000000      -1.79607260
2
Properties=species:S:1:pos:R:3:forces:R:3 energy=-2.695210149958223 pbc="F F F"
H        0.00000000       0.00000000       0.00000000       0.00000000       0.00000000       1.38539159
H        0.00000000       0.00000000       1.88787879       0.00000000       0.00000000      -1.38539159
2
Properties=species:S:1:pos:R:3:forces:R:3 energy=-2.6231902180803903 pbc="F F F"
H        0.00000000       0.00000000       0.00000000       0.00000000       0.00000000       1.04315197
H        0.00000000       0.00000000       1.94747475       0.00000000       0.00000000      -1.04315197
2
Properties=species:S:1:pos:R:3:forces:R:3 energy=-2.5695230220596113 pbc="F F F"
H        0.00000000       0.00000000       0.00000000       0.00000000       0.00000000       0.76872939
H        0.00000000       0.00000000       2.00707071       0.00000000       0.00000000      -0.76872939
2
Properties=species:S:1:pos:R:3:forces:R:3 energy=-2.530347074499131 pbc="F F F"
H        0.00000000       0.00000000       0.00000000       0.00000000       0.00000000       0.55548841
H        0.00000000       0.00000000       2.06666667       0.00000000       0.00000000      -0.55548841
2
Properties=species:S:1:pos:R:3:forces:R:3 energy=-2.5022786780427584 pbc="F F F"
H        0.00000000       0.00000000       0.00000000       0.00000000       0.00000000       0.39434689
H        0.00000000       0.00000000       2.12626263       0.00000000       0.00000000      -0.39434689
2
Properties=species:S:1:pos:R:3:forces:R:3 energy=-2.4824977523015535 pbc="F F F"
H        0.00000000       0.00000000       0.00000000       0.00000000       0.00000000       0.27580658
H        0.00000000       0.00000000       2.18585859       0.00000000       0.00000000      -0.27580658
2
Properties=species:S:1:pos:R:3:forces:R:3 energy=-2.468735675496239 pbc="F F F"
H        0.00000000       0.00000000       0.00000000       0.00000000       0.00000000       0.19099224
H        0.00000000       0.00000000       2.24545455       0.00000000       0.00000000      -0.19099224
2
Properties=species:S:1:pos:R:3:forces:R:3 energy=-2.4592202113493378 pbc="F F F"
H        0.00000000       0.00000000       0.00000000       0.00000000       0.00000000       0.13207936
H        0.00000000       0.00000000       2.30505051       0.00000000       0.00000000      -0.13207936
2
Properties=species:S:1:pos:R:3:forces:R:3 energy=-2.4526101808105887 pbc="F F F"
H        0.00000000       0.00000000       0.00000000       0.00000000       0.00000000       0.09246176
H        0.00000000       0.00000000       2.36464646       0.00000000       0.00000000      -0.09246176
2
Properties=species:S:1:pos:R:3:forces:R:3 energy=-2.4479239416309273 pbc="F F F"
H        0.00000000       0.00000000       0.00000000       0.00000000       0.00000000       0.06673283
H        0.00000000       0.00000000       2.42424242       0.00000000       0.00000000      -0.06673283
2
Properties=species:S:1:pos:R:3:forces:R:3 energy=-2.444466666934069 pbc="F F F"
H        0.00000000       0.00000000       0.00000000       0.00000000       0.00000000       0.05056622
H        0.00000000       0.00000000       2.48383838       0.00000000       0.00000000      -0.05056622
2
Properties=species:S:1:pos:R:3:forces:R:3 energy=-2.441773128420323 pbc="F F F"
H        0.00000000       0.00000000       0.00000000       0.00000000       0.00000000       0.04062569
H        0.00000000       0.00000000       2.54343434       0.00000000       0.00000000      -0.04062569
2
Properties=species:S:1:pos:R:3:forces:R:3 energy=-2.4395504758086086 pbc="F F F"
H        0.00000000       0.00000000       0.00000000       0.00000000       0.00000000       0.03444489
H        0.00000000       0.00000000       2.60303030       0.00000000       0.00000000      -0.03444489
2
Properties=species:S:1:pos:R:3:forces:R:3 energy=-2.437627697641379 pbc="F F F"
H        0.00000000       0.00000000       0.00000000       0.00000000       0.00000000       0.03032583
H        0.00000000       0.00000000       2.66262626       0.00000000       0.00000000      -0.03032583
2
Properties=species:S:1:pos:R:3:forces:R:3 energy=-2.4359162766753775 pbc="F F F"
H        0.00000000       0.00000000       0.00000000       0.00000000       0.00000000       0.02723711
H        0.00000000       0.00000000       2.72222222       0.00000000       0.00000000      -0.02723711
2
Properties=species:S:1:pos:R:3:forces:R:3 energy=-2.434370622791925 pbc="F F F"
H        0.00000000       0.00000000       0.00000000       0.00000000       0.00000000       0.02470124
H        0.00000000       0.00000000       2.78181818       0.00000000       0.00000000      -0.02470124
2
Properties=species:S:1:pos:R:3:forces:R:3 energy=-2.432961602891955 pbc="F F F"
H        0.00000000       0.00000000       0.00000000       0.00000000       0.00000000       0.02266895
H        0.00000000       0.00000000       2.84141414       0.00000000       0.00000000      -0.02266895
2
Properties=species:S:1:pos:R:3:forces:R:3 energy=-2.4316543746997814 pbc="F F F"
H        0.00000000       0.00000000       0.00000000       0.00000000       0.00000000       0.02137278
H        0.00000000       0.00000000       2.90101010       0.00000000       0.00000000      -0.02137278
2
Properties=species:S:1:pos:R:3:forces:R:3 energy=-2.4303924109363964 pbc="F F F"
H        0.00000000       0.00000000       0.00000000       0.00000000       0.00000000       0.02116629
H        0.00000000       0.00000000       2.96060606       0.00000000       0.00000000      -0.02116629
2
Properties=species:S:1:pos:R:3:forces:R:3 energy=-2.429102511851309 pbc="F F F"
H        0.00000000       0.00000000       0.00000000       0.00000000       0.00000000       0.02238893
H        0.00000000       0.00000000       3.02020202       0.00000000       0.00000000      -0.02238893
2
Properties=species:S:1:pos:R:3:forces:R:3 energy=-2.4276917040981156 pbc="F F F"
H        0.00000000       0.00000000       0.00000000       0.00000000       0.00000000       0.02525524
H        0.00000000       0.00000000       3.07979798       0.00000000       0.00000000      -0.02525524
2
Properties=species:S:1:pos:R:3:forces:R:3 energy=-2.4260591641383105 pbc="F F F"
H        0.00000000       0.00000000       0.00000000       0.00000000       0.00000000       0.02979267
H        0.00000000       0.00000000       3.13939394       0.00000000       0.00000000      -0.02979267
2
Properties=species:S:1:pos:R:3:forces:R:3 energy=-2.42411004948871 pbc="F F F"
H        0.00000000       0.00000000       0.00000000       0.00000000       0.00000000       0.03585342
H        0.00000000       0.00000000       3.19898990       0.00000000       0.00000000      -0.03585342
2
Properties=species:S:1:pos:R:3:forces:R:3 energy=-2.421761216114611 pbc="F F F"
H        0.00000000       0.00000000       0.00000000       0.00000000       0.00000000       0.04315345
H        0.00000000       0.00000000       3.25858586       0.00000000       0.00000000      -0.04315345
2
Properties=species:S:1:pos:R:3:forces:R:3 energy=-2.418948377223817 pbc="F F F"
H        0.00000000       0.00000000       0.00000000       0.00000000       0.00000000       0.05135332
H        0.00000000       0.00000000       3.31818182       0.00000000       0.00000000      -0.05135332
2
Properties=species:S:1:pos:R:3:forces:R:3 energy=-2.4156287202283186 pbc="F F F"
H        0.00000000       0.00000000       0.00000000       0.00000000       0.00000000       0.06012784
H        0.00000000       0.00000000       3.37777778       0.00000000       0.00000000      -0.06012784
2
Properties=species:S:1:pos:R:3:forces:R:3 energy=-2.4117754252948593 pbc="F F F"
H        0.00000000       0.00000000       0.00000000       0.00000000       0.00000000       0.06923240
H        0.00000000       0.00000000       3.43737374       0.00000000       0.00000000      -0.06923240
2
Properties=species:S:1:pos:R:3:forces:R:3 energy=-2.4073726541990137 pbc="F F F"
H        0.00000000       0.00000000       0.00000000       0.00000000       0.00000000       0.07852206
H        0.00000000       0.00000000       3.49696970       0.00000000       0.00000000      -0.07852206
2
Properties=species:S:1:pos:R:3:forces:R:3 energy=-2.4024129281167963 pbc="F F F"
H        0.00000000       0.00000000       0.00000000       0.00000000       0.00000000       0.08796032
H        0.00000000       0.00000000       3.55656566       0.00000000       0.00000000      -0.08796032
2
Properties=species:S:1:pos:R:3:forces:R:3 energy=-2.396884963822379 pbc="F F F"
H        0.00000000       0.00000000       0.00000000       0.00000000       0.00000000       0.09759317
H        0.00000000       0.00000000       3.61616162       0.00000000       0.00000000      -0.09759317
2
Properties=species:S:1:pos:R:3:forces:R:3 energy=-2.3907753380643992 pbc="F F F"
H        0.00000000       0.00000000       0.00000000       0.00000000       0.00000000       0.10749367
H        0.00000000       0.00000000       3.67575758       0.00000000       0.00000000      -0.10749367
2
Properties=species:S:1:pos:R:3:forces:R:3 energy=-2.3840668175964645 pbc="F F F"
H        0.00000000       0.00000000       0.00000000       0.00000000       0.00000000       0.11769156
H        0.00000000       0.00000000       3.73535354       0.00000000       0.00000000      -0.11769156
2
Properties=species:S:1:pos:R:3:forces:R:3 energy=-2.376743599832149 pbc="F F F"
H        0.00000000       0.00000000       0.00000000       0.00000000       0.00000000       0.12809302
H        0.00000000       0.00000000       3.79494949       0.00000000       0.00000000      -0.12809302
2
Properties=species:S:1:pos:R:3:forces:R:3 energy=-2.368800368741724 pbc="F F F"
H        0.00000000       0.00000000       0.00000000       0.00000000       0.00000000       0.13841827
H        0.00000000       0.00000000       3.85454545       0.00000000       0.00000000      -0.13841827
2
Properties=species:S:1:pos:R:3:forces:R:3 energy=-2.360256120110415 pbc="F F F"
H        0.00000000       0.00000000       0.00000000       0.00000000       0.00000000       0.14819027
H        0.00000000       0.00000000       3.91414141       0.00000000       0.00000000      -0.14819027
2
Properties=species:S:1:pos:R:3:forces:R:3 energy=-2.3511608346352646 pbc="F F F"
H        0.00000000       0.00000000       0.00000000       0.00000000       0.00000000       0.15677322
H        0.00000000       0.00000000       3.97373737       0.00000000       0.00000000      -0.15677322
2
Properties=species:S:1:pos:R:3:forces:R:3 energy=-2.34160739613174 pbc="F F F"
H        0.00000000       0.00000000       0.00000000       0.00000000       0.00000000       0.16348357
H        0.00000000       0.00000000       4.03333333       0.00000000       0.00000000      -0.16348357
2
Properties=species:S:1:pos:R:3:forces:R:3 energy=-2.331724913635641 pbc="F F F"
H        0.00000000       0.00000000       0.00000000       0.00000000       0.00000000       0.16768940
H        0.00000000       0.00000000       4.09292929       0.00000000       0.00000000      -0.16768940
2
Properties=species:S:1:pos:R:3:forces:R:3 energy=-2.3216799129020274 pbc="F F F"
H        0.00000000       0.00000000       0.00000000       0.00000000       0.00000000       0.16888443
H        0.00000000       0.00000000       4.15252525       0.00000000       0.00000000      -0.16888443
2
Properties=species:S:1:pos:R:3:forces:R:3 energy=-2.3116622680756453 pbc="F F F"
H        0.00000000       0.00000000       0.00000000       0.00000000       0.00000000       0.16671515
H        0.00000000       0.00000000       4.21212121       0.00000000       0.00000000      -0.16671515
2
Properties=species:S:1:pos:R:3:forces:R:3 energy=-2.3018799568781643 pbc="F F F"
H        0.00000000       0.00000000       0.00000000       0.00000000       0.00000000       0.16097105
H        0.00000000       0.00000000       4.27171717       0.00000000       0.00000000      -0.16097105
2
Properties=species:S:1:pos:R:3:forces:R:3 energy=-2.2925480937990126 pbc="F F F"
H        0.00000000       0.00000000       0.00000000       0.00000000       0.00000000       0.15161617
H        0.00000000       0.00000000       4.33131313       0.00000000       0.00000000      -0.15161617
2
Properties=species:S:1:pos:R:3:forces:R:3 energy=-2.2838758170240308 pbc="F F F"
H        0.00000000       0.00000000       0.00000000       0.00000000       0.00000000       0.13888465
H        0.00000000       0.00000000       4.39090909       0.00000000       0.00000000      -0.13888465
2
Properties=species:S:1:pos:R:3:forces:R:3 energy=-2.276049124525151 pbc="F F F"
H        0.00000000       0.00000000       0.00000000       0.00000000       0.00000000       0.12339064
H        0.00000000       0.00000000       4.45050505       0.00000000       0.00000000      -0.12339064
2
Properties=species:S:1:pos:R:3:forces:R:3 energy=-2.2692039327609574 pbc="F F F"
H        0.00000000       0.00000000       0.00000000       0.00000000       0.00000000       0.10615026
H        0.00000000       0.00000000       4.51010101       0.00000000       0.00000000      -0.10615026
2
Properties=species:S:1:pos:R:3:forces:R:3 energy=-2.2634060511247034 pbc="F F F"
H        0.00000000       0.00000000       0.00000000       0.00000000       0.00000000       0.08844268
H        0.00000000       0.00000000       4.56969697       0.00000000       0.00000000      -0.08844268
2
Properties=species:S:1:pos:R:3:forces:R:3 energy=-2.2586461774805175 pbc="F F F"
H        0.00000000       0.00000000       0.00000000       0.00000000       0.00000000       0.07150296
H        0.00000000       0.00000000       4.62929293       0.00000000       0.00000000      -0.07150296
2
Properties=species:S:1:pos:R:3:forces:R:3 energy=-2.25485062744494 pbc="F F F"
H        0.00000000       0.00000000       0.00000000       0.00000000       0.00000000       0.05618918
H        0.00000000       0.00000000       4.68888889       0.00000000       0.00000000      -0.05618918
2
Properties=species:S:1:pos:R:3:forces:R:3 energy=-2.251911377281017 pbc="F F F"
H        0.00000000       0.00000000       0.00000000       0.00000000       0.00000000       0.04274964
H        0.00000000       0.00000000       4.74848485       0.00000000       0.00000000      -0.04274964
2
Properties=species:S:1:pos:R:3:forces:R:3 energy=-2.249724449438029 pbc="F F F"
H        0.00000000       0.00000000       0.00000000       0.00000000       0.00000000       0.03085126
H        0.00000000       0.00000000       4.80808081       0.00000000       0.00000000      -0.03085126
2
Properties=species:S:1:pos:R:3:forces:R:3 energy=-2.2482166181794456 pbc="F F F"
H        0.00000000       0.00000000       0.00000000       0.00000000       0.00000000       0.01984244
H        0.00000000       0.00000000       4.86767677       0.00000000       0.00000000      -0.01984244
2
Properties=species:S:1:pos:R:3:forces:R:3 energy=-2.2473530392249423 pbc="F F F"
H        0.00000000       0.00000000       0.00000000       0.00000000       0.00000000       0.00918114
H        0.00000000       0.00000000       4.92727273       0.00000000       0.00000000      -0.00918114
2
Properties=species:S:1:pos:R:3:forces:R:3 energy=-2.247115316255817 pbc="F F F"
H        0.00000000       0.00000000       0.00000000       0.00000000       0.00000000      -0.00110233
H        0.00000000       0.00000000       4.98686869       0.00000000       0.00000000       0.00110233
2
Properties=species:S:1:pos:R:3:forces:R:3 energy=-2.2474600172454093 pbc="F F F"
H        0.00000000       0.00000000       0.00000000       0.00000000       0.00000000      -0.01014056
H        0.00000000       0.00000000       5.04646465       0.00000000       0.00000000       0.01014056
2
Properties=species:S:1:pos:R:3:forces:R:3 energy=-2.2482678914749954 pbc="F F F"
H        0.00000000       0.00000000       0.00000000       0.00000000       0.00000000      -0.01634251
H        0.00000000       0.00000000       5.10606061       0.00000000       0.00000000       0.01634251
2
Properties=species:S:1:pos:R:3:forces:R:3 energy=-2.249317406531673 pbc="F F F"
H        0.00000000       0.00000000       0.00000000       0.00000000       0.00000000      -0.01800355
H        0.00000000       0.00000000       5.16565657       0.00000000       0.00000000       0.01800355
2
Properties=species:S:1:pos:R:3:forces:R:3 energy=-2.250306682780515 pbc="F F F"
H        0.00000000       0.00000000       0.00000000       0.00000000       0.00000000      -0.01433502
H        0.00000000       0.00000000       5.22525253       0.00000000       0.00000000       0.01433502
2
Properties=species:S:1:pos:R:3:forces:R:3 energy=-2.2509388475499987 pbc="F F F"
H        0.00000000       0.00000000       0.00000000       0.00000000       0.00000000      -0.00636118
H        0.00000000       0.00000000       5.28484848       0.00000000       0.00000000       0.00636118
2
Properties=species:S:1:pos:R:3:forces:R:3 energy=-2.251037430590487 pbc="F F F"
H        0.00000000       0.00000000       0.00000000       0.00000000       0.00000000       0.00295485
H        0.00000000       0.00000000       5.34444444       0.00000000       0.00000000      -0.00295485
2
Properties=species:S:1:pos:R:3:forces:R:3 energy=-2.2506429233389076 pbc="F F F"
H        0.00000000       0.00000000       0.00000000       0.00000000       0.00000000       0.00944439
H        0.00000000       0.00000000       5.40404040       0.00000000       0.00000000      -0.00944439
2
Properties=species:S:1:pos:R:3:forces:R:3 energy=-2.2500463965818684 pbc="F F F"
H        0.00000000       0.00000000       0.00000000       0.00000000       0.00000000       0.00931864
H        0.00000000       0.00000000       5.46363636       0.00000000       0.00000000      -0.00931864
2
Properties=species:S:1:pos:R:3:forces:R:3 energy=-2.2496311903582695 pbc="F F F"
H        0.00000000       0.00000000       0.00000000       0.00000000       0.00000000       0.00469477
H        0.00000000       0.00000000       5.52323232       0.00000000       0.00000000      -0.00469477
2
Properties=species:S:1:pos:R:3:forces:R:3 energy=-2.2493305121373206 pbc="F F F"
H        0.00000000       0.00000000       0.00000000       0.00000000       0.00000000       0.00759407
H        0.00000000       0.00000000       5.58282828       0.00000000       0.00000000      -0.00759407
2
Properties=species:S:1:pos:R:3:forces:R:3 energy=-2.2485091806835875 pbc="F F F"
H        0.00000000       0.00000000       0.00000000       0.00000000       0.00000000       0.02052907
H        0.00000000       0.00000000       5.64242424       0.00000000       0.00000000      -0.02052907
2
Properties=species:S:1:pos:R:3:forces:R:3 energy=-2.247025543187889 pbc="F F F"
H        0.00000000       0.00000000       0.00000000       0.00000000       0.00000000       0.02661354
H        0.00000000       0.00000000       5.70202020       0.00000000       0.00000000      -0.02661354
2
Properties=species:S:1:pos:R:3:forces:R:3 energy=-2.2456732644860242 pbc="F F F"
H        0.00000000       0.00000000       0.00000000       0.00000000       0.00000000       0.01672493
H        0.00000000       0.00000000       5.76161616       0.00000000       0.00000000      -0.01672493
2
Properties=species:S:1:pos:R:3:forces:R:3 energy=-2.245105343862791 pbc="F F F"
H        0.00000000       0.00000000       0.00000000       0.00000000       0.00000000       0.00317207
H        0.00000000       0.00000000       5.82121212       0.00000000       0.00000000      -0.00317207
2
Properties=species:S:1:pos:R:3:forces:R:3 energy=-2.2451109919470493 pbc="F F F"
H        0.00000000       0.00000000       0.00000000       0.00000000       0.00000000      -0.00181063
H        0.00000000       0.00000000       5.88080808       0.00000000       0.00000000       0.00181063
2
Properties=species:S:1:pos:R:3:forces:R:3 energy=-2.2452030935770924 pbc="F F F"
H        0.00000000       0.00000000       0.00000000       0.00000000       0.00000000      -0.00084079
H        0.00000000       0.00000000       5.94040404       0.00000000       0.00000000       0.00084079
2
Properties=species:S:1:pos:R:3:forces:R:3 energy=-2.245216400337344 pbc="F F F"
H        0.00000000       0.00000000       0.00000000       0.00000000       0.00000000       0.00008987
H        0.00000000       0.00000000       6.00000000       0.00000000       0.00000000      -0.00008987
