2
Properties=species:S:1:pos:R:3:forces:R:3 energy=181.28886764765855 pbc="F F F"
He       0.00000000       0.00000000       0.00000000       0.00000000       0.00000000   -3140.60595703
He       0.00000000       0.00000000       0.10000000       0.00000000       0.00000000    3140.60595703
2
Properties=species:S:1:pos:R:3:forces:R:3 energy=74.68655746699449 pbc="F F F"
He       0.00000000       0.00000000       0.00000000       0.00000000       0.00000000    -969.41674805
He       0.00000000       0.00000000       0.15959596       0.00000000       0.00000000     969.41674805
2
Properties=species:S:1:pos:R:3:forces:R:3 energy=36.112041170607775 pbc="F F F"
He       0.00000000       0.00000000       0.00000000       0.00000000       0.00000000    -437.45193481
He       0.00000000       0.00000000       0.21919192       0.00000000       0.00000000     437.45193481
2
Properties=species:S:1:pos:R:3:forces:R:3 energy=16.80213135012538 pbc="F F F"
He       0.00000000       0.00000000       0.00000000       0.00000000       0.00000000    -226.23191833
He       0.00000000       0.00000000       0.27878788       0.00000000       0.00000000     226.23191833
2
Properties=species:S:1:pos:R:3:forces:R:3 energy=8.01463287612803 pbc="F F F"
He       0.00000000       0.00000000       0.00000000       0.00000000       0.00000000     -88.99158478
He       0.00000000       0.00000000       0.33838384       0.00000000       0.00000000      88.99158478
2
Properties=species:S:1:pos:R:3:forces:R:3 energy=3.4417239980985963 pbc="F F F"
He       0.00000000       0.00000000       0.00000000       0.00000000       0.00000000     -66.18938446
He       0.00000000       0.00000000       0.39797980       0.00000000       0.00000000      66.18938446
2
Properties=species:S:1:pos:R:3:forces:R:3 energy=0.6117398702916196 pbc="F F F"
He       0.00000000       0.00000000       0.00000000       0.00000000       0.00000000     -27.45827293
He       0.00000000       0.00000000       0.45757576       0.00000000       0.00000000      27.45827293
2
Properties=species:S:1:pos:R:3:forces:R:3 energy=-0.13914054872842446 pbc="F F F"
He       0.00000000       0.00000000       0.00000000       0.00000000       0.00000000      -2.94536304
He       0.00000000       0.00000000       0.51717172       0.00000000       0.00000000       2.94536304
2
Properties=species:S:1:pos:R:3:forces:R:3 energy=-0.3617733719004014 pbc="F F F"
He       0.00000000       0.00000000       0.00000000       0.00000000       0.00000000      -7.81535196
He       0.00000000       0.00000000       0.57676768       0.00000000       0.00000000       7.81535196
2
Properties=species:S:1:pos:R:3:forces:R:3 energy=-1.0380687082987947 pbc="F F F"
He       0.00000000       0.00000000       0.00000000       0.00000000       0.00000000     -12.56878662
He       0.00000000       0.00000000       0.63636364       0.00000000       0.00000000      12.56878662
2
Properties=species:S:1:pos:R:3:forces:R:3 energy=-1.568613817929009 pbc="F F F"
He       0.00000000       0.00000000       0.00000000       0.00000000       0.00000000      -3.62879133
He       0.00000000       0.00000000       0.69595960       0.00000000       0.00000000       3.62879133
2
Properties=species:S:1:pos:R:3:forces:R:3 energy=-1.4423317130608933 pbc="F F F"
He       0.00000000       0.00000000       0.00000000       0.00000000       0.00000000       7.13521481
He       0.00000000       0.00000000       0.75555556       0.00000000       0.00000000      -7.13521481
2
Properties=species:S:1:pos:R:3:forces:R:3 energy=-0.7812914532842256 pbc="F F F"
He       0.00000000       0.00000000       0.00000000       0.00000000       0.00000000      15.01856232
He       0.00000000       0.00000000       0.81515152       0.00000000       0.00000000     -15.01856232
2
Properties=species:S:1:pos:R:3:forces:R:3 energy=0.30752038070569987 pbc="F F F"
He       0.00000000       0.00000000       0.00000000       0.00000000       0.00000000      20.42656136
He       0.00000000       0.00000000       0.87474747       0.00000000       0.00000000     -20.42656136
2
Properties=species:S:1:pos:R:3:forces:R:3 energy=1.470235365897352 pbc="F F F"
He       0.00000000       0.00000000       0.00000000       0.00000000       0.00000000      17.10068512
He       0.00000000       0.00000000       0.93434343       0.00000000       0.00000000     -17.10068512
2
Properties=species:S:1:pos:R:3:forces:R:3 energy=2.2335315303396035 pbc="F F F"
He       0.00000000       0.00000000       0.00000000       0.00000000       0.00000000       8.21971226
He       0.00000000       0.00000000       0.99393939       0.00000000       0.00000000      -8.21971226
2
Properties=species:S:1:pos:R:3:forces:R:3 energy=2.4742082220187678 pbc="F F F"
He       0.00000000       0.00000000       0.00000000       0.00000000       0.00000000       0.37063804
He       0.00000000       0.00000000       1.05353535       0.00000000       0.00000000      -0.37063804
2
Properties=species:S:1:pos:R:3:forces:R:3 energy=2.3468064599009066 pbc="F F F"
He       0.00000000       0.00000000       0.00000000       0.00000000       0.00000000      -4.10095501
He       0.00000000       0.00000000       1.11313131       0.00000000       0.00000000       4.10095501
2
Properties=species:S:1:pos:R:3:forces:R:3 energy=2.038388034721153 pbc="F F F"
He       0.00000000       0.00000000       0.00000000       0.00000000       0.00000000      -5.91185522
He       0.00000000       0.00000000       1.17272727       0.00000000       0.00000000       5.91185522
2
Properties=species:S:1:pos:R:3:forces:R:3 energy=1.671437635246466 pbc="F F F"
He       0.00000000       0.00000000       0.00000000       0.00000000       0.00000000      -6.23333883
He       0.00000000       0.00000000       1.23232323       0.00000000       0.00000000       6.23333883
2
Properties=species:S:1:pos:R:3:forces:R:3 energy=1.3091526414634018 pbc="F F F"
He       0.00000000       0.00000000       0.00000000       0.00000000       0.00000000      -5.85133696
He       0.00000000       0.00000000       1.29191919       0.00000000       0.00000000       5.85133696
2
Properties=species:S:1:pos:R:3:forces:R:3 energy=0.979442517366419 pbc="F F F"
He       0.00000000       0.00000000       0.00000000       0.00000000       0.00000000      -5.18889332
He       0.00000000       0.00000000       1.35151515       0.00000000       0.00000000       5.18889332
2
Properties=species:S:1:pos:R:3:forces:R:3 energy=0.6920099528752179 pbc="F F F"
He       0.00000000       0.00000000       0.00000000       0.00000000       0.00000000      -4.45610237
He       0.00000000       0.00000000       1.41111111       0.00000000       0.00000000       4.45610237
2
Properties=species:S:1:pos:R:3:forces:R:3 energy=0.44770426301247945 pbc="F F F"
He       0.00000000       0.00000000       0.00000000       0.00000000       0.00000000      -3.75220203
He       0.00000000       0.00000000       1.47070707       0.00000000       0.00000000       3.75220203
2
Properties=species:S:1:pos:R:3:forces:R:3 energy=0.24333672787173308 pbc="F F F"
He       0.00000000       0.00000000       0.00000000       0.00000000       0.00000000      -3.11988497
He       0.00000000       0.00000000       1.53030303       0.00000000       0.00000000       3.11988497
2
Properties=species:S:1:pos:R:3:forces:R:3 energy=0.0741341586603663 pbc="F F F"
He       0.00000000       0.00000000       0.00000000       0.00000000       0.00000000      -2.57298040
He       0.00000000       0.00000000       1.58989899       0.00000000       0.00000000       2.57298040
2
Properties=species:S:1:pos:R:3:forces:R:3 energy=-0.0650288958996601 pbc="F F F"
He       0.00000000       0.00000000       0.00000000       0.00000000       0.00000000      -2.11077642
He       0.00000000       0.00000000       1.64949495       0.00000000       0.00000000       2.11077642
2
Properties=species:S:1:pos:R:3:forces:R:3 energy=-0.17899228984703297 pbc="F F F"
He       0.00000000       0.00000000       0.00000000       0.00000000       0.00000000      -1.72578669
He       0.00000000       0.00000000       1.70909091       0.00000000       0.00000000       1.72578669
2
Properties=species:S:1:pos:R:3:forces:R:3 energy=-0.2720608350624227 pbc="F F F"
He       0.00000000       0.00000000       0.00000000       0.00000000       0.00000000      -1.40786600
He       0.00000000       0.00000000       1.76868687       0.00000000       0.00000000       1.40786600
2
Properties=species:S:1:pos:R:3:forces:R:3 energy=-0.3479191854150173 pbc="F F F"
He       0.00000000       0.00000000       0.00000000       0.00000000       0.00000000      -1.14645875
He       0.00000000       0.00000000       1.82828283       0.00000000       0.00000000       1.14645875
2
Properties=species:S:1:pos:R:3:forces:R:3 energy=-0.40963568148484836 pbc="F F F"
He       0.00000000       0.00000000       0.00000000       0.00000000       0.00000000      -0.93174905
He       0.00000000       0.00000000       1.88787879       0.00000000       0.00000000       0.93174905
2
Properties=species:S:1:pos:R:3:forces:R:3 energy=-0.45973307132532487 pbc="F F F"
He       0.00000000       0.00000000       0.00000000       0.00000000       0.00000000      -0.75514048
He       0.00000000       0.00000000       1.94747475       0.00000000       0.00000000       0.75514048
2
Properties=species:S:1:pos:R:3:forces:R:3 energy=-0.5002569368676706 pbc="F F F"
He       0.00000000       0.00000000       0.00000000       0.00000000       0.00000000      -0.60944790
He       0.00000000       0.00000000       2.00707071       0.00000000       0.00000000       0.60944790
2
Properties=species:S:1:pos:R:3:forces:R:3 energy=-0.5328701671591496 pbc="F F F"
He       0.00000000       0.00000000       0.00000000       0.00000000       0.00000000      -0.48884133
He       0.00000000       0.00000000       2.06666667       0.00000000       0.00000000       0.48884133
2
Properties=species:S:1:pos:R:3:forces:R:3 energy=-0.5589293420123295 pbc="F F F"
He       0.00000000       0.00000000       0.00000000       0.00000000       0.00000000      -0.38873938
He       0.00000000       0.00000000       2.12626263       0.00000000       0.00000000       0.38873938
2
Properties=species:S:1:pos:R:3:forces:R:3 energy=-0.5795437408508949 pbc="F F F"
He       0.00000000       0.00000000       0.00000000       0.00000000       0.00000000      -0.30565926
He       0.00000000       0.00000000       2.18585859       0.00000000       0.00000000       0.30565926
2
Properties=species:S:1:pos:R:3:forces:R:3 energy=-0.5956469874431708 pbc="F F F"
He       0.00000000       0.00000000       0.00000000       0.00000000       0.00000000      -0.23699914
He       0.00000000       0.00000000       2.24545455       0.00000000       0.00000000       0.23699914
2
Properties=species:S:1:pos:R:3:forces:R:3 energy=-0.6080401448275012 pbc="F F F"
He       0.00000000       0.00000000       0.00000000       0.00000000       0.00000000      -0.18083307
He       0.00000000       0.00000000       2.30505051       0.00000000       0.00000000       0.18083307
2
Properties=species:S:1:pos:R:3:forces:R:3 energy=-0.61742020620871 pbc="F F F"
He       0.00000000       0.00000000       0.00000000       0.00000000       0.00000000      -0.13571309
He       0.00000000       0.00000000       2.36464646       0.00000000       0.00000000       0.13571309
2
Properties=species:S:1:pos:R:3:forces:R:3 energy=-0.6244112691030153 pbc="F F F"
He       0.00000000       0.00000000       0.00000000       0.00000000       0.00000000      -0.10043139
He       0.00000000       0.00000000       2.42424242       0.00000000       0.00000000       0.10043139
2
Properties=species:S:1:pos:R:3:forces:R:3 energy=-0.629564475832381 pbc="F F F"
He       0.00000000       0.00000000       0.00000000       0.00000000       0.00000000      -0.07386499
He       0.00000000       0.00000000       2.48383838       0.00000000       0.00000000       0.07386499
2
Properties=species:S:1:pos:R:3:forces:R:3 energy=-0.6333649284305163 pbc="F F F"
He       0.00000000       0.00000000       0.00000000       0.00000000       0.00000000      -0.05482307
He       0.00000000       0.00000000       2.54343434       0.00000000       0.00000000       0.05482307
2
Properties=species:S:1:pos:R:3:forces:R:3 energy=-0.6362223313323618 pbc="F F F"
He       0.00000000       0.00000000       0.00000000       0.00000000       0.00000000      -0.04198384
He       0.00000000       0.00000000       2.60303030       0.00000000       0.00000000       0.04198384
2
Properties=species:S:1:pos:R:3:forces:R:3 energy=-0.6384637797317925 pbc="F F F"
He       0.00000000       0.00000000       0.00000000       0.00000000       0.00000000      -0.03390339
He       0.00000000       0.00000000       2.66262626       0.00000000       0.00000000       0.03390339
2
Properties=species:S:1:pos:R:3:forces:R:3 energy=-0.640328038179183 pbc="F F F"
He       0.00000000       0.00000000       0.00000000       0.00000000       0.00000000      -0.02909220
He       0.00000000       0.00000000       2.72222222       0.00000000       0.00000000       0.02909220
2
Properties=species:S:1:pos:R:3:forces:R:3 energy=-0.6419682831127771 pbc="F F F"
He       0.00000000       0.00000000       0.00000000       0.00000000       0.00000000      -0.02613820
He       0.00000000       0.00000000       2.78181818       0.00000000       0.00000000       0.02613820
2
Properties=species:S:1:pos:R:3:forces:R:3 energy=-0.6434567526149467 pbc="F F F"
He       0.00000000       0.00000000       0.00000000       0.00000000       0.00000000      -0.02385203
He       0.00000000       0.00000000       2.84141414       0.00000000       0.00000000       0.02385203
2
Properties=species:S:1:pos:R:3:forces:R:3 energy=-0.6448066813669446 pbc="F F F"
He       0.00000000       0.00000000       0.00000000       0.00000000       0.00000000      -0.02137484
He       0.00000000       0.00000000       2.90101010       0.00000000       0.00000000       0.02137484
2
Properties=species:S:1:pos:R:3:forces:R:3 energy=-0.6459910169775868 pbc="F F F"
He       0.00000000       0.00000000       0.00000000       0.00000000       0.00000000      -0.01823505
He       0.00000000       0.00000000       2.96060606       0.00000000       0.00000000       0.01823505
2
Properties=species:S:1:pos:R:3:forces:R:3 energy=-0.6469648317999125 pbc="F F F"
He       0.00000000       0.00000000       0.00000000       0.00000000       0.00000000      -0.01432948
He       0.00000000       0.00000000       3.02020202       0.00000000       0.00000000       0.01432948
2
Properties=species:S:1:pos:R:3:forces:R:3 energy=-0.6476871380826794 pbc="F F F"
He       0.00000000       0.00000000       0.00000000       0.00000000       0.00000000      -0.00984383
He       0.00000000       0.00000000       3.07979798       0.00000000       0.00000000       0.00984383
2
Properties=species:S:1:pos:R:3:forces:R:3 energy=-0.6481334648968927 pbc="F F F"
He       0.00000000       0.00000000       0.00000000       0.00000000       0.00000000      -0.00513149
He       0.00000000       0.00000000       3.13939394       0.00000000       0.00000000       0.00513149
2
Properties=species:S:1:pos:R:3:forces:R:3 energy=-0.6483022949177195 pbc="F F F"
He       0.00000000       0.00000000       0.00000000       0.00000000       0.00000000      -0.00059213
He       0.00000000       0.00000000       3.19898990       0.00000000       0.00000000       0.00059213
2
Properties=species:S:1:pos:R:3:forces:R:3 energy=-0.6482145276362051 pbc="F F F"
He       0.00000000       0.00000000       0.00000000       0.00000000       0.00000000       0.00342132
He       0.00000000       0.00000000       3.25858586       0.00000000       0.00000000      -0.00342132
2
Properties=species:S:1:pos:R:3:forces:R:3 energy=-0.6479101410289427 pbc="F F F"
He       0.00000000       0.00000000       0.00000000       0.00000000       0.00000000       0.00665690
He       0.00000000       0.00000000       3.31818182       0.00000000       0.00000000      -0.00665690
2
Properties=species:S:1:pos:R:3:forces:R:3 energy=-0.6474394881909964 pbc="F F F"
He       0.00000000       0.00000000       0.00000000       0.00000000       0.00000000       0.00897602
He       0.00000000       0.00000000       3.37777778       0.00000000       0.00000000      -0.00897602
2
Properties=species:S:1:pos:R:3:forces:R:3 energy=-0.6468591243425552 pbc="F F F"
He       0.00000000       0.00000000       0.00000000       0.00000000       0.00000000       0.01033999
He       0.00000000       0.00000000       3.43737374       0.00000000       0.00000000      -0.01033999
2
Properties=species:S:1:pos:R:3:forces:R:3 energy=-0.6462252487340965 pbc="F F F"
He       0.00000000       0.00000000       0.00000000       0.00000000       0.00000000       0.01078895
He       0.00000000       0.00000000       3.49696970       0.00000000       0.00000000      -0.01078895
2
Properties=species:S:1:pos:R:3:forces:R:3 energy=-0.6455894721968856 pbc="F F F"
He       0.00000000       0.00000000       0.00000000       0.00000000       0.00000000       0.01041960
He       0.00000000       0.00000000       3.55656566       0.00000000       0.00000000      -0.01041960
2
Properties=species:S:1:pos:R:3:forces:R:3 energy=-0.6449969677903289 pbc="F F F"
He       0.00000000       0.00000000       0.00000000       0.00000000       0.00000000       0.00936132
He       0.00000000       0.00000000       3.61616162       0.00000000       0.00000000      -0.00936132
2
Properties=species:S:1:pos:R:3:forces:R:3 energy=-0.6444846218824262 pbc="F F F"
He       0.00000000       0.00000000       0.00000000       0.00000000       0.00000000       0.00775664
He       0.00000000       0.00000000       3.67575758       0.00000000       0.00000000      -0.00775664
2
Properties=species:S:1:pos:R:3:forces:R:3 energy=-0.6440808545067582 pbc="F F F"
He       0.00000000       0.00000000       0.00000000       0.00000000       0.00000000       0.00573397
He       0.00000000       0.00000000       3.73535354       0.00000000       0.00000000      -0.00573397
2
Properties=species:S:1:pos:R:3:forces:R:3 energy=-0.6438074065861313 pbc="F F F"
He       0.00000000       0.00000000       0.00000000       0.00000000       0.00000000       0.00339449
He       0.00000000       0.00000000       3.79494949       0.00000000       0.00000000      -0.00339449
2
Properties=species:S:1:pos:R:3:forces:R:3 energy=-0.64368106767532 pbc="F F F"
He       0.00000000       0.00000000       0.00000000       0.00000000       0.00000000       0.00080983
He       0.00000000       0.00000000       3.85454545       0.00000000       0.00000000      -0.00080983
2
Properties=species:S:1:pos:R:3:forces:R:3 energy=-0.6437146291404117 pbc="F F F"
He       0.00000000       0.00000000       0.00000000       0.00000000       0.00000000      -0.00196056
He       0.00000000       0.00000000       3.91414141       0.00000000       0.00000000       0.00196056
2
Properties=species:S:1:pos:R:3:forces:R:3 energy=-0.6439168241086866 pbc="F F F"
He       0.00000000       0.00000000       0.00000000       0.00000000       0.00000000      -0.00483275
He       0.00000000       0.00000000       3.97373737       0.00000000       0.00000000       0.00483275
2
Properties=species:S:1:pos:R:3:forces:R:3 energy=-0.6442898242467775 pbc="F F F"
He       0.00000000       0.00000000       0.00000000       0.00000000       0.00000000      -0.00766269
He       0.00000000       0.00000000       4.03333333       0.00000000       0.00000000       0.00766269
2
Properties=species:S:1:pos:R:3:forces:R:3 energy=-0.644824947855017 pbc="F F F"
He       0.00000000       0.00000000       0.00000000       0.00000000       0.00000000      -0.01023086
He       0.00000000       0.00000000       4.09292929       0.00000000       0.00000000       0.01023086
2
Properties=species:S:1:pos:R:3:forces:R:3 energy=-0.6454986072960617 pbc="F F F"
He       0.00000000       0.00000000       0.00000000       0.00000000       0.00000000      -0.01226540
He       0.00000000       0.00000000       4.15252525       0.00000000       0.00000000       0.01226540
2
Properties=species:S:1:pos:R:3:forces:R:3 energy=-0.6462711169762431 pbc="F F F"
He       0.00000000       0.00000000       0.00000000       0.00000000       0.00000000      -0.01350746
He       0.00000000       0.00000000       4.21212121       0.00000000       0.00000000       0.01350746
2
Properties=species:S:1:pos:R:3:forces:R:3 energy=-0.6470895546778741 pbc="F F F"
He       0.00000000       0.00000000       0.00000000       0.00000000       0.00000000      -0.01379109
He       0.00000000       0.00000000       4.27171717       0.00000000       0.00000000       0.01379109
2
Properties=species:S:1:pos:R:3:forces:R:3 energy=-0.6478955108436567 pbc="F F F"
He       0.00000000       0.00000000       0.00000000       0.00000000       0.00000000      -0.01310461
He       0.00000000       0.00000000       4.33131313       0.00000000       0.00000000       0.01310461
2
Properties=species:S:1:pos:R:3:forces:R:3 energy=-0.6486352216756514 pbc="F F F"
He       0.00000000       0.00000000       0.00000000       0.00000000       0.00000000      -0.01160643
He       0.00000000       0.00000000       4.39090909       0.00000000       0.00000000       0.01160643
2
Properties=species:S:1:pos:R:3:forces:R:3 energy=-0.6492686295115067 pbc="F F F"
He       0.00000000       0.00000000       0.00000000       0.00000000       0.00000000      -0.00959350
He       0.00000000       0.00000000       4.45050505       0.00000000       0.00000000       0.00959350
2
Properties=species:S:1:pos:R:3:forces:R:3 energy=-0.6497757611216038 pbc="F F F"
He       0.00000000       0.00000000       0.00000000       0.00000000       0.00000000      -0.00743065
He       0.00000000       0.00000000       4.51010101       0.00000000       0.00000000       0.00743065
2
Properties=species:S:1:pos:R:3:forces:R:3 energy=-0.6501582178561122 pbc="F F F"
He       0.00000000       0.00000000       0.00000000       0.00000000       0.00000000      -0.00546266
He       0.00000000       0.00000000       4.56969697       0.00000000       0.00000000       0.00546266
2
Properties=species:S:1:pos:R:3:forces:R:3 energy=-0.6504357791825552 pbc="F F F"
He       0.00000000       0.00000000       0.00000000       0.00000000       0.00000000      -0.00393636
He       0.00000000       0.00000000       4.62929293       0.00000000       0.00000000       0.00393636
2
Properties=species:S:1:pos:R:3:forces:R:3 energy=-0.6506382367133595 pbc="F F F"
He       0.00000000       0.00000000       0.00000000       0.00000000       0.00000000      -0.00294880
He       0.00000000       0.00000000       4.68888889       0.00000000       0.00000000       0.00294880
2
Properties=species:S:1:pos:R:3:forces:R:3 energy=-0.6507968118175935 pbc="F F F"
He       0.00000000       0.00000000       0.00000000       0.00000000       0.00000000      -0.00244353
He       0.00000000       0.00000000       4.74848485       0.00000000       0.00000000       0.00244353
2
Properties=species:S:1:pos:R:3:forces:R:3 energy=-0.650935751236124 pbc="F F F"
He       0.00000000       0.00000000       0.00000000       0.00000000       0.00000000      -0.00225310
He       0.00000000       0.00000000       4.80808081       0.00000000       0.00000000       0.00225310
2
Properties=species:S:1:pos:R:3:forces:R:3 energy=-0.6510676190385762 pbc="F F F"
He       0.00000000       0.00000000       0.00000000       0.00000000       0.00000000      -0.00217451
He       0.00000000       0.00000000       4.86767677       0.00000000       0.00000000       0.00217451
2
Properties=species:S:1:pos:R:3:forces:R:3 energy=-0.6511940117986373 pbc="F F F"
He       0.00000000       0.00000000       0.00000000       0.00000000       0.00000000      -0.00205464
He       0.00000000       0.00000000       4.92727273       0.00000000       0.00000000       0.00205464
2
Properties=species:S:1:pos:R:3:forces:R:3 energy=-0.6513107443775801 pbc="F F F"
He       0.00000000       0.00000000       0.00000000       0.00000000       0.00000000      -0.00185088
He       0.00000000       0.00000000       4.98686869       0.00000000       0.00000000       0.00185088
2
Properties=species:S:1:pos:R:3:forces:R:3 energy=-0.6514145259445541 pbc="F F F"
He       0.00000000       0.00000000       0.00000000       0.00000000       0.00000000      -0.00164484
He       0.00000000       0.00000000       5.04646465       0.00000000       0.00000000       0.00164484
2
Properties=species:S:1:pos:R:3:forces:R:3 energy=-0.651509814365337 pbc="F F F"
He       0.00000000       0.00000000       0.00000000       0.00000000       0.00000000      -0.00158961
He       0.00000000       0.00000000       5.10606061       0.00000000       0.00000000       0.00158961
2
Properties=species:S:1:pos:R:3:forces:R:3 energy=-0.6516094722122819 pbc="F F F"
He       0.00000000       0.00000000       0.00000000       0.00000000       0.00000000      -0.00180425
He       0.00000000       0.00000000       5.16565657       0.00000000       0.00000000       0.00180425
2
Properties=species:S:1:pos:R:3:forces:R:3 energy=-0.6517296407029955 pbc="F F F"
He       0.00000000       0.00000000       0.00000000       0.00000000       0.00000000      -0.00225353
He       0.00000000       0.00000000       5.22525253       0.00000000       0.00000000       0.00225353
2
Properties=species:S:1:pos:R:3:forces:R:3 energy=-0.6518778187466338 pbc="F F F"
He       0.00000000       0.00000000       0.00000000       0.00000000       0.00000000      -0.00268416
He       0.00000000       0.00000000       5.28484848       0.00000000       0.00000000       0.00268416
2
Properties=species:S:1:pos:R:3:forces:R:3 energy=-0.6520416574810475 pbc="F F F"
He       0.00000000       0.00000000       0.00000000       0.00000000       0.00000000      -0.00272446
He       0.00000000       0.00000000       5.34444444       0.00000000       0.00000000       0.00272446
2
Properties=species:S:1:pos:R:3:forces:R:3 energy=-0.652192834438576 pbc="F F F"
He       0.00000000       0.00000000       0.00000000       0.00000000       0.00000000      -0.00231067
He       0.00000000       0.00000000       5.40404040       0.00000000       0.00000000       0.00231067
2
Properties=species:S:1:pos:R:3:forces:R:3 energy=-0.652324127740278 pbc="F F F"
He       0.00000000       0.00000000       0.00000000       0.00000000       0.00000000      -0.00225941
He       0.00000000       0.00000000       5.46363636       0.00000000       0.00000000       0.00225941
2
Properties=species:S:1:pos:R:3:forces:R:3 energy=-0.6524832118862103 pbc="F F F"
He       0.00000000       0.00000000       0.00000000       0.00000000       0.00000000      -0.00314135
He       0.00000000       0.00000000       5.52323232       0.00000000       0.00000000       0.00314135
2
Properties=species:S:1:pos:R:3:forces:R:3 energy=-0.6526753234138184 pbc="F F F"
He       0.00000000       0.00000000       0.00000000       0.00000000       0.00000000      -0.00290420
He       0.00000000       0.00000000       5.58282828       0.00000000       0.00000000       0.00290420
2
Properties=species:S:1:pos:R:3:forces:R:3 energy=-0.6527839866090175 pbc="F F F"
He       0.00000000       0.00000000       0.00000000       0.00000000       0.00000000      -0.00052938
He       0.00000000       0.00000000       5.64242424       0.00000000       0.00000000       0.00052938
2
Properties=species:S:1:pos:R:3:forces:R:3 energy=-0.6527454168143609 pbc="F F F"
He       0.00000000       0.00000000       0.00000000       0.00000000       0.00000000       0.00149392
He       0.00000000       0.00000000       5.70202020       0.00000000       0.00000000      -0.00149392
2
Properties=species:S:1:pos:R:3:forces:R:3 energy=-0.6526618883613147 pbc="F F F"
He       0.00000000       0.00000000       0.00000000       0.00000000       0.00000000       0.00088012
He       0.00000000       0.00000000       5.76161616       0.00000000       0.00000000      -0.00088012
2
Properties=species:S:1:pos:R:3:forces:R:3 energy=-0.6526604119482142 pbc="F F F"
He       0.00000000       0.00000000       0.00000000       0.00000000       0.00000000      -0.00070369
He       0.00000000       0.00000000       5.82121212       0.00000000       0.00000000       0.00070369
2
Properties=species:S:1:pos:R:3:forces:R:3 energy=-0.6527148147895314 pbc="F F F"
He       0.00000000       0.00000000       0.00000000       0.00000000       0.00000000      -0.00088395
He       0.00000000       0.00000000       5.88080808       0.00000000       0.00000000       0.00088395
2
Properties=species:S:1:pos:R:3:forces:R:3 energy=-0.6527506447349946 pbc="F F F"
He       0.00000000       0.00000000       0.00000000       0.00000000       0.00000000      -0.00028473
He       0.00000000       0.00000000       5.94040404       0.00000000       0.00000000       0.00028473
2
Properties=species:S:1:pos:R:3:forces:R:3 energy=-0.6527554984639741 pbc="F F F"
He       0.00000000       0.00000000       0.00000000       0.00000000       0.00000000       0.00001895
He       0.00000000       0.00000000       6.00000000       0.00000000       0.00000000      -0.00001895
