2
Properties=species:S:1:pos:R:3:forces:R:3 energy=25045.45727682392 pbc="F F F"
Kr       0.00000000       0.00000000       0.00000000       0.00000000       0.00000000 -582235.25000000
Kr       0.00000000       0.00000000       0.10000000       0.00000000       0.00000000  582235.25000000
2
Properties=species:S:1:pos:R:3:forces:R:3 energy=7629.59887838642 pbc="F F F"
Kr       0.00000000       0.00000000       0.00000000       0.00000000       0.00000000 -132513.57812500
Kr       0.00000000       0.00000000       0.15959596       0.00000000       0.00000000  132513.57812500
2
Properties=species:S:1:pos:R:3:forces:R:3 energy=2994.9045424489204 pbc="F F F"
Kr       0.00000000       0.00000000       0.00000000       0.00000000       0.00000000  -42844.53906250
Kr       0.00000000       0.00000000       0.21919192       0.00000000       0.00000000   42844.53906250
2
Properties=species:S:1:pos:R:3:forces:R:3 energy=1352.6623549489204 pbc="F F F"
Kr       0.00000000       0.00000000       0.00000000       0.00000000       0.00000000  -16931.97070312
Kr       0.00000000       0.00000000       0.27878788       0.00000000       0.00000000   16931.97070312
2
Properties=species:S:1:pos:R:3:forces:R:3 energy=664.4422621754828 pbc="F F F"
Kr       0.00000000       0.00000000       0.00000000       0.00000000       0.00000000   -7596.45166016
Kr       0.00000000       0.00000000       0.33838384       0.00000000       0.00000000    7596.45166016
2
Properties=species:S:1:pos:R:3:forces:R:3 energy=342.73718405206677 pbc="F F F"
Kr       0.00000000       0.00000000       0.00000000       0.00000000       0.00000000   -3723.81298828
Kr       0.00000000       0.00000000       0.39797980       0.00000000       0.00000000    3723.81298828
2
Properties=species:S:1:pos:R:3:forces:R:3 energy=180.26852560638503 pbc="F F F"
Kr       0.00000000       0.00000000       0.00000000       0.00000000       0.00000000   -1941.75781250
Kr       0.00000000       0.00000000       0.45757576       0.00000000       0.00000000    1941.75781250
2
Properties=species:S:1:pos:R:3:forces:R:3 energy=94.19023276287317 pbc="F F F"
Kr       0.00000000       0.00000000       0.00000000       0.00000000       0.00000000   -1043.02490234
Kr       0.00000000       0.00000000       0.51717172       0.00000000       0.00000000    1043.02490234
2
Properties=species:S:1:pos:R:3:forces:R:3 energy=47.7066702997264 pbc="F F F"
Kr       0.00000000       0.00000000       0.00000000       0.00000000       0.00000000    -567.19061279
Kr       0.00000000       0.00000000       0.57676768       0.00000000       0.00000000     567.19061279
2
Properties=species:S:1:pos:R:3:forces:R:3 energy=21.819509053555095 pbc="F F F"
Kr       0.00000000       0.00000000       0.00000000       0.00000000       0.00000000    -330.32873535
Kr       0.00000000       0.00000000       0.63636364       0.00000000       0.00000000     330.32873535
2
Properties=species:S:1:pos:R:3:forces:R:3 energy=6.6018844058795185 pbc="F F F"
Kr       0.00000000       0.00000000       0.00000000       0.00000000       0.00000000    -193.79344177
Kr       0.00000000       0.00000000       0.69595960       0.00000000       0.00000000     193.79344177
2
Properties=species:S:1:pos:R:3:forces:R:3 energy=-2.739784653003417 pbc="F F F"
Kr       0.00000000       0.00000000       0.00000000       0.00000000       0.00000000    -126.77049255
Kr       0.00000000       0.00000000       0.75555556       0.00000000       0.00000000     126.77049255
2
Properties=species:S:1:pos:R:3:forces:R:3 energy=-8.972620386226783 pbc="F F F"
Kr       0.00000000       0.00000000       0.00000000       0.00000000       0.00000000     -85.02606964
Kr       0.00000000       0.00000000       0.81515152       0.00000000       0.00000000      85.02606964
2
Properties=species:S:1:pos:R:3:forces:R:3 energy=-13.168085423432252 pbc="F F F"
Kr       0.00000000       0.00000000       0.00000000       0.00000000       0.00000000     -57.90492630
Kr       0.00000000       0.00000000       0.87474747       0.00000000       0.00000000      57.90492630
2
Properties=species:S:1:pos:R:3:forces:R:3 energy=-16.060735954028434 pbc="F F F"
Kr       0.00000000       0.00000000       0.00000000       0.00000000       0.00000000     -40.20400238
Kr       0.00000000       0.00000000       0.93434343       0.00000000       0.00000000      40.20400238
2
Properties=species:S:1:pos:R:3:forces:R:3 energy=-18.046354444758677 pbc="F F F"
Kr       0.00000000       0.00000000       0.00000000       0.00000000       0.00000000     -27.00180054
Kr       0.00000000       0.00000000       0.99393939       0.00000000       0.00000000      27.00180054
2
Properties=species:S:1:pos:R:3:forces:R:3 energy=-19.345850006355764 pbc="F F F"
Kr       0.00000000       0.00000000       0.00000000       0.00000000       0.00000000     -17.18043327
Kr       0.00000000       0.00000000       1.05353535       0.00000000       0.00000000      17.18043327
2
Properties=species:S:1:pos:R:3:forces:R:3 energy=-20.159904314133687 pbc="F F F"
Kr       0.00000000       0.00000000       0.00000000       0.00000000       0.00000000     -10.63767338
Kr       0.00000000       0.00000000       1.11313131       0.00000000       0.00000000      10.63767338
2
Properties=species:S:1:pos:R:3:forces:R:3 energy=-20.662744118661283 pbc="F F F"
Kr       0.00000000       0.00000000       0.00000000       0.00000000       0.00000000      -6.54608631
Kr       0.00000000       0.00000000       1.17272727       0.00000000       0.00000000       6.54608631
2
Properties=species:S:1:pos:R:3:forces:R:3 energy=-20.964427237285857 pbc="F F F"
Kr       0.00000000       0.00000000       0.00000000       0.00000000       0.00000000      -3.69473457
Kr       0.00000000       0.00000000       1.23232323       0.00000000       0.00000000       3.69473457
2
Properties=species:S:1:pos:R:3:forces:R:3 energy=-21.11330494201009 pbc="F F F"
Kr       0.00000000       0.00000000       0.00000000       0.00000000       0.00000000      -1.39818323
Kr       0.00000000       0.00000000       1.29191919       0.00000000       0.00000000       1.39818323
2
Properties=species:S:1:pos:R:3:forces:R:3 energy=-21.148516009356275 pbc="F F F"
Kr       0.00000000       0.00000000       0.00000000       0.00000000       0.00000000       0.02101962
Kr       0.00000000       0.00000000       1.35151515       0.00000000       0.00000000      -0.02101962
2
Properties=species:S:1:pos:R:3:forces:R:3 energy=-21.136075659887975 pbc="F F F"
Kr       0.00000000       0.00000000       0.00000000       0.00000000       0.00000000       0.19892895
Kr       0.00000000       0.00000000       1.41111111       0.00000000       0.00000000      -0.19892895
2
Properties=species:S:1:pos:R:3:forces:R:3 energy=-21.142348159760513 pbc="F F F"
Kr       0.00000000       0.00000000       0.00000000       0.00000000       0.00000000      -0.49662694
Kr       0.00000000       0.00000000       1.47070707       0.00000000       0.00000000       0.49662694
2
Properties=species:S:1:pos:R:3:forces:R:3 energy=-21.199296828852162 pbc="F F F"
Kr       0.00000000       0.00000000       0.00000000       0.00000000       0.00000000      -1.40767229
Kr       0.00000000       0.00000000       1.53030303       0.00000000       0.00000000       1.40767229
2
Properties=species:S:1:pos:R:3:forces:R:3 energy=-21.30678812028845 pbc="F F F"
Kr       0.00000000       0.00000000       0.00000000       0.00000000       0.00000000      -2.16062951
Kr       0.00000000       0.00000000       1.58989899       0.00000000       0.00000000       2.16062951
2
Properties=species:S:1:pos:R:3:forces:R:3 energy=-21.451924507768247 pbc="F F F"
Kr       0.00000000       0.00000000       0.00000000       0.00000000       0.00000000      -2.66903925
Kr       0.00000000       0.00000000       1.64949495       0.00000000       0.00000000       2.66903925
2
Properties=species:S:1:pos:R:3:forces:R:3 energy=-21.62014525143894 pbc="F F F"
Kr       0.00000000       0.00000000       0.00000000       0.00000000       0.00000000      -2.93747067
Kr       0.00000000       0.00000000       1.70909091       0.00000000       0.00000000       2.93747067
2
Properties=species:S:1:pos:R:3:forces:R:3 energy=-21.79763728894414 pbc="F F F"
Kr       0.00000000       0.00000000       0.00000000       0.00000000       0.00000000      -2.98473740
Kr       0.00000000       0.00000000       1.76868687       0.00000000       0.00000000       2.98473740
2
Properties=species:S:1:pos:R:3:forces:R:3 energy=-21.972298439355683 pbc="F F F"
Kr       0.00000000       0.00000000       0.00000000       0.00000000       0.00000000      -2.85146737
Kr       0.00000000       0.00000000       1.82828283       0.00000000       0.00000000       2.85146737
2
Properties=species:S:1:pos:R:3:forces:R:3 energy=-22.135183185316603 pbc="F F F"
Kr       0.00000000       0.00000000       0.00000000       0.00000000       0.00000000      -2.60123491
Kr       0.00000000       0.00000000       1.88787879       0.00000000       0.00000000       2.60123491
2
Properties=species:S:1:pos:R:3:forces:R:3 energy=-22.281393390597486 pbc="F F F"
Kr       0.00000000       0.00000000       0.00000000       0.00000000       0.00000000      -2.30269814
Kr       0.00000000       0.00000000       1.94747475       0.00000000       0.00000000       2.30269814
2
Properties=species:S:1:pos:R:3:forces:R:3 energy=-22.40982653878844 pbc="F F F"
Kr       0.00000000       0.00000000       0.00000000       0.00000000       0.00000000      -2.01257849
Kr       0.00000000       0.00000000       2.00707071       0.00000000       0.00000000       2.01257849
2
Properties=species:S:1:pos:R:3:forces:R:3 energy=-22.522214428004233 pbc="F F F"
Kr       0.00000000       0.00000000       0.00000000       0.00000000       0.00000000      -1.76903713
Kr       0.00000000       0.00000000       2.06666667       0.00000000       0.00000000       1.76903713
2
Properties=species:S:1:pos:R:3:forces:R:3 energy=-22.622045514946993 pbc="F F F"
Kr       0.00000000       0.00000000       0.00000000       0.00000000       0.00000000      -1.59370220
Kr       0.00000000       0.00000000       2.12626263       0.00000000       0.00000000       1.59370220
2
Properties=species:S:1:pos:R:3:forces:R:3 energy=-22.713719962629693 pbc="F F F"
Kr       0.00000000       0.00000000       0.00000000       0.00000000       0.00000000      -1.49615812
Kr       0.00000000       0.00000000       2.18585859       0.00000000       0.00000000       1.49615812
2
Properties=species:S:1:pos:R:3:forces:R:3 energy=-22.801924026856746 pbc="F F F"
Kr       0.00000000       0.00000000       0.00000000       0.00000000       0.00000000      -1.47642767
Kr       0.00000000       0.00000000       2.24545455       0.00000000       0.00000000       1.47642767
2
Properties=species:S:1:pos:R:3:forces:R:3 energy=-22.89107311121521 pbc="F F F"
Kr       0.00000000       0.00000000       0.00000000       0.00000000       0.00000000      -1.52560711
Kr       0.00000000       0.00000000       2.30505051       0.00000000       0.00000000       1.52560711
2
Properties=species:S:1:pos:R:3:forces:R:3 energy=-22.984812042524926 pbc="F F F"
Kr       0.00000000       0.00000000       0.00000000       0.00000000       0.00000000      -1.62729466
Kr       0.00000000       0.00000000       2.36464646       0.00000000       0.00000000       1.62729466
2
Properties=species:S:1:pos:R:3:forces:R:3 energy=-23.085666026038716 pbc="F F F"
Kr       0.00000000       0.00000000       0.00000000       0.00000000       0.00000000      -1.76071286
Kr       0.00000000       0.00000000       2.42424242       0.00000000       0.00000000       1.76071286
2
Properties=species:S:1:pos:R:3:forces:R:3 energy=-23.194868978521747 pbc="F F F"
Kr       0.00000000       0.00000000       0.00000000       0.00000000       0.00000000      -1.90396619
Kr       0.00000000       0.00000000       2.48383838       0.00000000       0.00000000       1.90396619
2
Properties=species:S:1:pos:R:3:forces:R:3 energy=-23.31238833170331 pbc="F F F"
Kr       0.00000000       0.00000000       0.00000000       0.00000000       0.00000000      -2.03655553
Kr       0.00000000       0.00000000       2.54343434       0.00000000       0.00000000       2.03655553
2
Properties=species:S:1:pos:R:3:forces:R:3 energy=-23.43706616894805 pbc="F F F"
Kr       0.00000000       0.00000000       0.00000000       0.00000000       0.00000000      -2.14201164
Kr       0.00000000       0.00000000       2.60303030       0.00000000       0.00000000       2.14201164
2
Properties=species:S:1:pos:R:3:forces:R:3 energy=-23.566956830715696 pbc="F F F"
Kr       0.00000000       0.00000000       0.00000000       0.00000000       0.00000000      -2.21039820
Kr       0.00000000       0.00000000       2.66262626       0.00000000       0.00000000       2.21039820
2
Properties=species:S:1:pos:R:3:forces:R:3 energy=-23.699738900281854 pbc="F F F"
Kr       0.00000000       0.00000000       0.00000000       0.00000000       0.00000000      -2.23927975
Kr       0.00000000       0.00000000       2.72222222       0.00000000       0.00000000       2.23927975
2
Properties=species:S:1:pos:R:3:forces:R:3 energy=-23.833142447455884 pbc="F F F"
Kr       0.00000000       0.00000000       0.00000000       0.00000000       0.00000000      -2.23210096
Kr       0.00000000       0.00000000       2.78181818       0.00000000       0.00000000       2.23210096
2
Properties=species:S:1:pos:R:3:forces:R:3 energy=-23.965185546938965 pbc="F F F"
Kr       0.00000000       0.00000000       0.00000000       0.00000000       0.00000000      -2.19448924
Kr       0.00000000       0.00000000       2.84141414       0.00000000       0.00000000       2.19448924
2
Properties=species:S:1:pos:R:3:forces:R:3 energy=-24.094183806355748 pbc="F F F"
Kr       0.00000000       0.00000000       0.00000000       0.00000000       0.00000000      -2.13041067
Kr       0.00000000       0.00000000       2.90101010       0.00000000       0.00000000       2.13041067
2
Properties=species:S:1:pos:R:3:forces:R:3 energy=-24.21860351070506 pbc="F F F"
Kr       0.00000000       0.00000000       0.00000000       0.00000000       0.00000000      -2.04065633
Kr       0.00000000       0.00000000       2.96060606       0.00000000       0.00000000       2.04065633
2
Properties=species:S:1:pos:R:3:forces:R:3 energy=-24.336888047298658 pbc="F F F"
Kr       0.00000000       0.00000000       0.00000000       0.00000000       0.00000000      -1.92447460
Kr       0.00000000       0.00000000       3.02020202       0.00000000       0.00000000       1.92447460
2
Properties=species:S:1:pos:R:3:forces:R:3 energy=-24.447473171677913 pbc="F F F"
Kr       0.00000000       0.00000000       0.00000000       0.00000000       0.00000000      -1.78260958
Kr       0.00000000       0.00000000       3.07979798       0.00000000       0.00000000       1.78260958
2
Properties=species:S:1:pos:R:3:forces:R:3 energy=-24.548931961358154 pbc="F F F"
Kr       0.00000000       0.00000000       0.00000000       0.00000000       0.00000000      -1.61930394
Kr       0.00000000       0.00000000       3.13939394       0.00000000       0.00000000       1.61930394
2
Properties=species:S:1:pos:R:3:forces:R:3 energy=-24.64020179823553 pbc="F F F"
Kr       0.00000000       0.00000000       0.00000000       0.00000000       0.00000000      -1.44205427
Kr       0.00000000       0.00000000       3.19898990       0.00000000       0.00000000       1.44205427
2
Properties=species:S:1:pos:R:3:forces:R:3 energy=-24.7207159716829 pbc="F F F"
Kr       0.00000000       0.00000000       0.00000000       0.00000000       0.00000000      -1.25984979
Kr       0.00000000       0.00000000       3.25858586       0.00000000       0.00000000       1.25984979
2
Properties=species:S:1:pos:R:3:forces:R:3 energy=-24.790436113772014 pbc="F F F"
Kr       0.00000000       0.00000000       0.00000000       0.00000000       0.00000000      -1.08109164
Kr       0.00000000       0.00000000       3.31818182       0.00000000       0.00000000       1.08109164
2
Properties=species:S:1:pos:R:3:forces:R:3 energy=-24.84977208350333 pbc="F F F"
Kr       0.00000000       0.00000000       0.00000000       0.00000000       0.00000000      -0.91224897
Kr       0.00000000       0.00000000       3.37777778       0.00000000       0.00000000       0.91224897
2
Properties=species:S:1:pos:R:3:forces:R:3 energy=-24.8994503732136 pbc="F F F"
Kr       0.00000000       0.00000000       0.00000000       0.00000000       0.00000000      -0.75747377
Kr       0.00000000       0.00000000       3.43737374       0.00000000       0.00000000       0.75747377
2
Properties=species:S:1:pos:R:3:forces:R:3 energy=-24.940380587043972 pbc="F F F"
Kr       0.00000000       0.00000000       0.00000000       0.00000000       0.00000000      -0.61892021
Kr       0.00000000       0.00000000       3.49696970       0.00000000       0.00000000       0.61892021
2
Properties=species:S:1:pos:R:3:forces:R:3 energy=-24.973558178039045 pbc="F F F"
Kr       0.00000000       0.00000000       0.00000000       0.00000000       0.00000000      -0.49733403
Kr       0.00000000       0.00000000       3.55656566       0.00000000       0.00000000       0.49733403
2
Properties=species:S:1:pos:R:3:forces:R:3 energy=-24.999993877039408 pbc="F F F"
Kr       0.00000000       0.00000000       0.00000000       0.00000000       0.00000000      -0.39258140
Kr       0.00000000       0.00000000       3.61616162       0.00000000       0.00000000       0.39258140
2
Properties=species:S:1:pos:R:3:forces:R:3 energy=-25.020671735763468 pbc="F F F"
Kr       0.00000000       0.00000000       0.00000000       0.00000000       0.00000000      -0.30398154
Kr       0.00000000       0.00000000       3.67575758       0.00000000       0.00000000       0.30398154
2
Properties=species:S:1:pos:R:3:forces:R:3 energy=-25.036524332067156 pbc="F F F"
Kr       0.00000000       0.00000000       0.00000000       0.00000000       0.00000000      -0.23045795
Kr       0.00000000       0.00000000       3.73535354       0.00000000       0.00000000       0.23045795
2
Properties=species:S:1:pos:R:3:forces:R:3 energy=-25.048411797028546 pbc="F F F"
Kr       0.00000000       0.00000000       0.00000000       0.00000000       0.00000000      -0.17062910
Kr       0.00000000       0.00000000       3.79494949       0.00000000       0.00000000       0.17062910
2
Properties=species:S:1:pos:R:3:forces:R:3 energy=-25.057102746609214 pbc="F F F"
Kr       0.00000000       0.00000000       0.00000000       0.00000000       0.00000000      -0.12287091
Kr       0.00000000       0.00000000       3.85454545       0.00000000       0.00000000       0.12287091
2
Properties=species:S:1:pos:R:3:forces:R:3 energy=-25.063262838750386 pbc="F F F"
Kr       0.00000000       0.00000000       0.00000000       0.00000000       0.00000000      -0.08542301
Kr       0.00000000       0.00000000       3.91414141       0.00000000       0.00000000       0.08542301
2
Properties=species:S:1:pos:R:3:forces:R:3 energy=-25.067452867608228 pbc="F F F"
Kr       0.00000000       0.00000000       0.00000000       0.00000000       0.00000000      -0.05651065
Kr       0.00000000       0.00000000       3.97373737       0.00000000       0.00000000       0.05651065
2
Properties=species:S:1:pos:R:3:forces:R:3 energy=-25.070134496687096 pbc="F F F"
Kr       0.00000000       0.00000000       0.00000000       0.00000000       0.00000000      -0.03448377
Kr       0.00000000       0.00000000       4.03333333       0.00000000       0.00000000       0.03448377
2
Properties=species:S:1:pos:R:3:forces:R:3 energy=-25.071672160248518 pbc="F F F"
Kr       0.00000000       0.00000000       0.00000000       0.00000000       0.00000000      -0.01791111
Kr       0.00000000       0.00000000       4.09292929       0.00000000       0.00000000       0.01791111
2
Properties=species:S:1:pos:R:3:forces:R:3 energy=-25.072354050877784 pbc="F F F"
Kr       0.00000000       0.00000000       0.00000000       0.00000000       0.00000000      -0.00563598
Kr       0.00000000       0.00000000       4.15252525       0.00000000       0.00000000       0.00563598
2
Properties=species:S:1:pos:R:3:forces:R:3 energy=-25.072411193762207 pbc="F F F"
Kr       0.00000000       0.00000000       0.00000000       0.00000000       0.00000000       0.00323304
Kr       0.00000000       0.00000000       4.21212121       0.00000000       0.00000000      -0.00323304
2
Properties=species:S:1:pos:R:3:forces:R:3 energy=-25.07202316477727 pbc="F F F"
Kr       0.00000000       0.00000000       0.00000000       0.00000000       0.00000000       0.00937314
Kr       0.00000000       0.00000000       4.27171717       0.00000000       0.00000000      -0.00937314
2
Properties=species:S:1:pos:R:3:forces:R:3 energy=-25.071337165556848 pbc="F F F"
Kr       0.00000000       0.00000000       0.00000000       0.00000000       0.00000000       0.01331578
Kr       0.00000000       0.00000000       4.33131313       0.00000000       0.00000000      -0.01331578
2
Properties=species:S:1:pos:R:3:forces:R:3 energy=-25.070471837398518 pbc="F F F"
Kr       0.00000000       0.00000000       0.00000000       0.00000000       0.00000000       0.01550748
Kr       0.00000000       0.00000000       4.39090909       0.00000000       0.00000000      -0.01550748
2
Properties=species:S:1:pos:R:3:forces:R:3 energy=-25.069515345599406 pbc="F F F"
Kr       0.00000000       0.00000000       0.00000000       0.00000000       0.00000000       0.01634491
Kr       0.00000000       0.00000000       4.45050505       0.00000000       0.00000000      -0.01634491
2
Properties=species:S:1:pos:R:3:forces:R:3 energy=-25.068542546781796 pbc="F F F"
Kr       0.00000000       0.00000000       0.00000000       0.00000000       0.00000000       0.01618764
Kr       0.00000000       0.00000000       4.51010101       0.00000000       0.00000000      -0.01618764
2
Properties=species:S:1:pos:R:3:forces:R:3 energy=-25.067599712681073 pbc="F F F"
Kr       0.00000000       0.00000000       0.00000000       0.00000000       0.00000000       0.01535977
Kr       0.00000000       0.00000000       4.56969697       0.00000000       0.00000000      -0.01535977
2
Properties=species:S:1:pos:R:3:forces:R:3 energy=-25.066719796854308 pbc="F F F"
Kr       0.00000000       0.00000000       0.00000000       0.00000000       0.00000000       0.01414448
Kr       0.00000000       0.00000000       4.62929293       0.00000000       0.00000000      -0.01414448
2
Properties=species:S:1:pos:R:3:forces:R:3 energy=-25.06591669243952 pbc="F F F"
Kr       0.00000000       0.00000000       0.00000000       0.00000000       0.00000000       0.01277627
Kr       0.00000000       0.00000000       4.68888889       0.00000000       0.00000000      -0.01277627
2
Properties=species:S:1:pos:R:3:forces:R:3 energy=-25.065196678227352 pbc="F F F"
Kr       0.00000000       0.00000000       0.00000000       0.00000000       0.00000000       0.01142572
Kr       0.00000000       0.00000000       4.74848485       0.00000000       0.00000000      -0.01142572
2
Properties=species:S:1:pos:R:3:forces:R:3 energy=-25.06455267364846 pbc="F F F"
Kr       0.00000000       0.00000000       0.00000000       0.00000000       0.00000000       0.01017647
Kr       0.00000000       0.00000000       4.80808081       0.00000000       0.00000000      -0.01017647
2
Properties=species:S:1:pos:R:3:forces:R:3 energy=-25.063981413622717 pbc="F F F"
Kr       0.00000000       0.00000000       0.00000000       0.00000000       0.00000000       0.00900393
Kr       0.00000000       0.00000000       4.86767677       0.00000000       0.00000000      -0.00900393
2
Properties=species:S:1:pos:R:3:forces:R:3 energy=-25.063481522995616 pbc="F F F"
Kr       0.00000000       0.00000000       0.00000000       0.00000000       0.00000000       0.00776994
Kr       0.00000000       0.00000000       4.92727273       0.00000000       0.00000000      -0.00776994
2
Properties=species:S:1:pos:R:3:forces:R:3 energy=-25.063061139993117 pbc="F F F"
Kr       0.00000000       0.00000000       0.00000000       0.00000000       0.00000000       0.00625803
Kr       0.00000000       0.00000000       4.98686869       0.00000000       0.00000000      -0.00625803
2
Properties=species:S:1:pos:R:3:forces:R:3 energy=-25.062745542448372 pbc="F F F"
Kr       0.00000000       0.00000000       0.00000000       0.00000000       0.00000000       0.00426952
Kr       0.00000000       0.00000000       5.04646465       0.00000000       0.00000000      -0.00426952
2
Properties=species:S:1:pos:R:3:forces:R:3 energy=-25.062561876737337 pbc="F F F"
Kr       0.00000000       0.00000000       0.00000000       0.00000000       0.00000000       0.00178545
Kr       0.00000000       0.00000000       5.10606061       0.00000000       0.00000000      -0.00178545
2
Properties=species:S:1:pos:R:3:forces:R:3 energy=-25.062535345457388 pbc="F F F"
Kr       0.00000000       0.00000000       0.00000000       0.00000000       0.00000000      -0.00083761
Kr       0.00000000       0.00000000       5.16565657       0.00000000       0.00000000       0.00083761
2
Properties=species:S:1:pos:R:3:forces:R:3 energy=-25.062647242589566 pbc="F F F"
Kr       0.00000000       0.00000000       0.00000000       0.00000000       0.00000000      -0.00272891
Kr       0.00000000       0.00000000       5.22525253       0.00000000       0.00000000       0.00272891
2
Properties=species:S:1:pos:R:3:forces:R:3 energy=-25.062819685602026 pbc="F F F"
Kr       0.00000000       0.00000000       0.00000000       0.00000000       0.00000000      -0.00259655
Kr       0.00000000       0.00000000       5.28484848       0.00000000       0.00000000       0.00259655
2
Properties=species:S:1:pos:R:3:forces:R:3 energy=-25.062896548299364 pbc="F F F"
Kr       0.00000000       0.00000000       0.00000000       0.00000000       0.00000000       0.00053195
Kr       0.00000000       0.00000000       5.34444444       0.00000000       0.00000000      -0.00053195
2
Properties=species:S:1:pos:R:3:forces:R:3 energy=-25.06272165855275 pbc="F F F"
Kr       0.00000000       0.00000000       0.00000000       0.00000000       0.00000000       0.00525724
Kr       0.00000000       0.00000000       5.40404040       0.00000000       0.00000000      -0.00525724
2
Properties=species:S:1:pos:R:3:forces:R:3 energy=-25.062346702270737 pbc="F F F"
Kr       0.00000000       0.00000000       0.00000000       0.00000000       0.00000000       0.00621041
Kr       0.00000000       0.00000000       5.46363636       0.00000000       0.00000000      -0.00621041
2
Properties=species:S:1:pos:R:3:forces:R:3 energy=-25.062111331447895 pbc="F F F"
Kr       0.00000000       0.00000000       0.00000000       0.00000000       0.00000000       0.00119818
Kr       0.00000000       0.00000000       5.52323232       0.00000000       0.00000000      -0.00119818
2
Properties=species:S:1:pos:R:3:forces:R:3 energy=-25.06215679679704 pbc="F F F"
Kr       0.00000000       0.00000000       0.00000000       0.00000000       0.00000000      -0.00174865
Kr       0.00000000       0.00000000       5.58282828       0.00000000       0.00000000       0.00174865
2
Properties=species:S:1:pos:R:3:forces:R:3 energy=-25.06222567158908 pbc="F F F"
Kr       0.00000000       0.00000000       0.00000000       0.00000000       0.00000000      -0.00034003
Kr       0.00000000       0.00000000       5.64242424       0.00000000       0.00000000       0.00034003
2
Properties=species:S:1:pos:R:3:forces:R:3 energy=-25.062258863258414 pbc="F F F"
Kr       0.00000000       0.00000000       0.00000000       0.00000000       0.00000000      -0.00195939
Kr       0.00000000       0.00000000       5.70202020       0.00000000       0.00000000       0.00195939
2
Properties=species:S:1:pos:R:3:forces:R:3 energy=-25.062590161775567 pbc="F F F"
Kr       0.00000000       0.00000000       0.00000000       0.00000000       0.00000000      -0.00960675
Kr       0.00000000       0.00000000       5.76161616       0.00000000       0.00000000       0.00960675
2
Properties=species:S:1:pos:R:3:forces:R:3 energy=-25.06332063167148 pbc="F F F"
Kr       0.00000000       0.00000000       0.00000000       0.00000000       0.00000000      -0.01329098
Kr       0.00000000       0.00000000       5.82121212       0.00000000       0.00000000       0.01329098
2
Properties=species:S:1:pos:R:3:forces:R:3 energy=-25.063984833748332 pbc="F F F"
Kr       0.00000000       0.00000000       0.00000000       0.00000000       0.00000000      -0.00808886
Kr       0.00000000       0.00000000       5.88080808       0.00000000       0.00000000       0.00808886
2
Properties=species:S:1:pos:R:3:forces:R:3 energy=-25.064258449640423 pbc="F F F"
Kr       0.00000000       0.00000000       0.00000000       0.00000000       0.00000000      -0.00129090
Kr       0.00000000       0.00000000       5.94040404       0.00000000       0.00000000       0.00129090
2
Properties=species:S:1:pos:R:3:forces:R:3 energy=-25.06422531814635 pbc="F F F"
Kr       0.00000000       0.00000000       0.00000000       0.00000000       0.00000000       0.00144978
Kr       0.00000000       0.00000000       6.00000000       0.00000000       0.00000000      -0.00144978
