2
Properties=species:S:1:pos:R:3:forces:R:3 energy=16113.150294917948 pbc="F F F"
Mg       0.00000000       0.00000000       0.00000000       0.00000000       0.00000000  -85036.67187500
Mg       0.00000000       0.00000000       0.10000000       0.00000000       0.00000000   85036.67187500
2
Properties=species:S:1:pos:R:3:forces:R:3 energy=13336.882716792948 pbc="F F F"
Mg       0.00000000       0.00000000       0.00000000       0.00000000       0.00000000  -25477.09765625
Mg       0.00000000       0.00000000       0.15959596       0.00000000       0.00000000   25477.09765625
2
Properties=species:S:1:pos:R:3:forces:R:3 energy=12148.667873042948 pbc="F F F"
Mg       0.00000000       0.00000000       0.00000000       0.00000000       0.00000000  -18122.07812500
Mg       0.00000000       0.00000000       0.21919192       0.00000000       0.00000000   18122.07812500
2
Properties=species:S:1:pos:R:3:forces:R:3 energy=10891.233302730448 pbc="F F F"
Mg       0.00000000       0.00000000       0.00000000       0.00000000       0.00000000  -25688.34570312
Mg       0.00000000       0.00000000       0.27878788       0.00000000       0.00000000   25688.34570312
2
Properties=species:S:1:pos:R:3:forces:R:3 energy=8964.323146482033 pbc="F F F"
Mg       0.00000000       0.00000000       0.00000000       0.00000000       0.00000000  -39337.42187500
Mg       0.00000000       0.00000000       0.33838384       0.00000000       0.00000000   39337.42187500
2
Properties=species:S:1:pos:R:3:forces:R:3 energy=6263.444240232033 pbc="F F F"
Mg       0.00000000       0.00000000       0.00000000       0.00000000       0.00000000  -49814.35546875
Mg       0.00000000       0.00000000       0.39797980       0.00000000       0.00000000   49814.35546875
2
Properties=species:S:1:pos:R:3:forces:R:3 energy=3310.7137714836167 pbc="F F F"
Mg       0.00000000       0.00000000       0.00000000       0.00000000       0.00000000  -46309.05078125
Mg       0.00000000       0.00000000       0.45757576       0.00000000       0.00000000   46309.05078125
2
Properties=species:S:1:pos:R:3:forces:R:3 energy=1134.8608662133468 pbc="F F F"
Mg       0.00000000       0.00000000       0.00000000       0.00000000       0.00000000  -21883.60546875
Mg       0.00000000       0.00000000       0.51717172       0.00000000       0.00000000   21883.60546875
2
Properties=species:S:1:pos:R:3:forces:R:3 energy=263.8833881923387 pbc="F F F"
Mg       0.00000000       0.00000000       0.00000000       0.00000000       0.00000000   -7962.25000000
Mg       0.00000000       0.00000000       0.57676768       0.00000000       0.00000000    7962.25000000
2
Properties=species:S:1:pos:R:3:forces:R:3 energy=36.43521467889295 pbc="F F F"
Mg       0.00000000       0.00000000       0.00000000       0.00000000       0.00000000   -1055.31225586
Mg       0.00000000       0.00000000       0.63636364       0.00000000       0.00000000    1055.31225586
2
Properties=species:S:1:pos:R:3:forces:R:3 energy=20.815330205349174 pbc="F F F"
Mg       0.00000000       0.00000000       0.00000000       0.00000000       0.00000000     101.02711487
Mg       0.00000000       0.00000000       0.69595960       0.00000000       0.00000000    -101.02711487
2
Properties=species:S:1:pos:R:3:forces:R:3 energy=19.78455516050132 pbc="F F F"
Mg       0.00000000       0.00000000       0.00000000       0.00000000       0.00000000      12.56475639
Mg       0.00000000       0.00000000       0.75555556       0.00000000       0.00000000     -12.56475639
2
Properties=species:S:1:pos:R:3:forces:R:3 energy=20.436612844636354 pbc="F F F"
Mg       0.00000000       0.00000000       0.00000000       0.00000000       0.00000000       7.48068380
Mg       0.00000000       0.00000000       0.81515152       0.00000000       0.00000000      -7.48068380
2
Properties=species:S:1:pos:R:3:forces:R:3 energy=20.496524626394603 pbc="F F F"
Mg       0.00000000       0.00000000       0.00000000       0.00000000       0.00000000      -8.07125187
Mg       0.00000000       0.00000000       0.87474747       0.00000000       0.00000000       8.07125187
2
Properties=species:S:1:pos:R:3:forces:R:3 energy=19.43581761013718 pbc="F F F"
Mg       0.00000000       0.00000000       0.00000000       0.00000000       0.00000000     -25.78613472
Mg       0.00000000       0.00000000       0.93434343       0.00000000       0.00000000      25.78613472
2
Properties=species:S:1:pos:R:3:forces:R:3 energy=17.60148048017824 pbc="F F F"
Mg       0.00000000       0.00000000       0.00000000       0.00000000       0.00000000     -34.89356995
Mg       0.00000000       0.00000000       0.99393939       0.00000000       0.00000000      34.89356995
2
Properties=species:S:1:pos:R:3:forces:R:3 energy=15.368368284357336 pbc="F F F"
Mg       0.00000000       0.00000000       0.00000000       0.00000000       0.00000000     -39.26313782
Mg       0.00000000       0.00000000       1.05353535       0.00000000       0.00000000      39.26313782
2
Properties=species:S:1:pos:R:3:forces:R:3 energy=13.012832965640605 pbc="F F F"
Mg       0.00000000       0.00000000       0.00000000       0.00000000       0.00000000     -39.02171326
Mg       0.00000000       0.00000000       1.11313131       0.00000000       0.00000000      39.02171326
2
Properties=species:S:1:pos:R:3:forces:R:3 energy=10.809216116783467 pbc="F F F"
Mg       0.00000000       0.00000000       0.00000000       0.00000000       0.00000000     -34.26550674
Mg       0.00000000       0.00000000       1.17272727       0.00000000       0.00000000      34.26550674
2
Properties=species:S:1:pos:R:3:forces:R:3 energy=8.955311711028498 pbc="F F F"
Mg       0.00000000       0.00000000       0.00000000       0.00000000       0.00000000     -28.34085846
Mg       0.00000000       0.00000000       1.23232323       0.00000000       0.00000000      28.34085846
2
Properties=species:S:1:pos:R:3:forces:R:3 energy=7.335060940936101 pbc="F F F"
Mg       0.00000000       0.00000000       0.00000000       0.00000000       0.00000000     -26.82502937
Mg       0.00000000       0.00000000       1.29191919       0.00000000       0.00000000      26.82502937
2
Properties=species:S:1:pos:R:3:forces:R:3 energy=5.735329056720384 pbc="F F F"
Mg       0.00000000       0.00000000       0.00000000       0.00000000       0.00000000     -26.38900566
Mg       0.00000000       0.00000000       1.35151515       0.00000000       0.00000000      26.38900566
2
Properties=species:S:1:pos:R:3:forces:R:3 energy=4.271174505812548 pbc="F F F"
Mg       0.00000000       0.00000000       0.00000000       0.00000000       0.00000000     -22.23851395
Mg       0.00000000       0.00000000       1.41111111       0.00000000       0.00000000      22.23851395
2
Properties=species:S:1:pos:R:3:forces:R:3 energy=3.0975941839195 pbc="F F F"
Mg       0.00000000       0.00000000       0.00000000       0.00000000       0.00000000     -17.36046791
Mg       0.00000000       0.00000000       1.47070707       0.00000000       0.00000000      17.36046791
2
Properties=species:S:1:pos:R:3:forces:R:3 energy=2.1621064682454887 pbc="F F F"
Mg       0.00000000       0.00000000       0.00000000       0.00000000       0.00000000     -14.37825394
Mg       0.00000000       0.00000000       1.53030303       0.00000000       0.00000000      14.37825394
2
Properties=species:S:1:pos:R:3:forces:R:3 energy=1.352328978511948 pbc="F F F"
Mg       0.00000000       0.00000000       0.00000000       0.00000000       0.00000000     -12.96586514
Mg       0.00000000       0.00000000       1.58989899       0.00000000       0.00000000      12.96586514
2
Properties=species:S:1:pos:R:3:forces:R:3 energy=0.6059954061080853 pbc="F F F"
Mg       0.00000000       0.00000000       0.00000000       0.00000000       0.00000000     -12.11339092
Mg       0.00000000       0.00000000       1.64949495       0.00000000       0.00000000      12.11339092
2
Properties=species:S:1:pos:R:3:forces:R:3 energy=-0.09222929237613503 pbc="F F F"
Mg       0.00000000       0.00000000       0.00000000       0.00000000       0.00000000     -11.31140614
Mg       0.00000000       0.00000000       1.70909091       0.00000000       0.00000000      11.31140614
2
Properties=species:S:1:pos:R:3:forces:R:3 energy=-0.741080020442668 pbc="F F F"
Mg       0.00000000       0.00000000       0.00000000       0.00000000       0.00000000     -10.45445251
Mg       0.00000000       0.00000000       1.76868687       0.00000000       0.00000000      10.45445251
2
Properties=species:S:1:pos:R:3:forces:R:3 energy=-1.33744345601654 pbc="F F F"
Mg       0.00000000       0.00000000       0.00000000       0.00000000       0.00000000      -9.55388737
Mg       0.00000000       0.00000000       1.82828283       0.00000000       0.00000000       9.55388737
2
Properties=species:S:1:pos:R:3:forces:R:3 energy=-1.8794684633966297 pbc="F F F"
Mg       0.00000000       0.00000000       0.00000000       0.00000000       0.00000000      -8.63522339
Mg       0.00000000       0.00000000       1.88787879       0.00000000       0.00000000       8.63522339
2
Properties=species:S:1:pos:R:3:forces:R:3 energy=-2.3668238205718555 pbc="F F F"
Mg       0.00000000       0.00000000       0.00000000       0.00000000       0.00000000      -7.72264910
Mg       0.00000000       0.00000000       1.94747475       0.00000000       0.00000000       7.72264910
2
Properties=species:S:1:pos:R:3:forces:R:3 energy=-2.80030005227452 pbc="F F F"
Mg       0.00000000       0.00000000       0.00000000       0.00000000       0.00000000      -6.82730770
Mg       0.00000000       0.00000000       2.00707071       0.00000000       0.00000000       6.82730770
2
Properties=species:S:1:pos:R:3:forces:R:3 energy=-3.1808052679459324 pbc="F F F"
Mg       0.00000000       0.00000000       0.00000000       0.00000000       0.00000000      -5.94292831
Mg       0.00000000       0.00000000       2.06666667       0.00000000       0.00000000       5.94292831
2
Properties=species:S:1:pos:R:3:forces:R:3 energy=-3.5086395684690057 pbc="F F F"
Mg       0.00000000       0.00000000       0.00000000       0.00000000       0.00000000      -5.05871248
Mg       0.00000000       0.00000000       2.12626263       0.00000000       0.00000000       5.05871248
2
Properties=species:S:1:pos:R:3:forces:R:3 energy=-3.7838849666671286 pbc="F F F"
Mg       0.00000000       0.00000000       0.00000000       0.00000000       0.00000000      -4.18184042
Mg       0.00000000       0.00000000       2.18585859       0.00000000       0.00000000       4.18184042
2
Properties=species:S:1:pos:R:3:forces:R:3 energy=-4.007980591929802 pbc="F F F"
Mg       0.00000000       0.00000000       0.00000000       0.00000000       0.00000000      -3.35115314
Mg       0.00000000       0.00000000       2.24545455       0.00000000       0.00000000       3.35115314
2
Properties=species:S:1:pos:R:3:forces:R:3 energy=-4.185466758548721 pbc="F F F"
Mg       0.00000000       0.00000000       0.00000000       0.00000000       0.00000000      -2.62856412
Mg       0.00000000       0.00000000       2.30505051       0.00000000       0.00000000       2.62856412
2
Properties=species:S:1:pos:R:3:forces:R:3 energy=-4.324613249358861 pbc="F F F"
Mg       0.00000000       0.00000000       0.00000000       0.00000000       0.00000000      -2.07234740
Mg       0.00000000       0.00000000       2.36464646       0.00000000       0.00000000       2.07234740
2
Properties=species:S:1:pos:R:3:forces:R:3 energy=-4.436334083467655 pbc="F F F"
Mg       0.00000000       0.00000000       0.00000000       0.00000000       0.00000000      -1.70890045
Mg       0.00000000       0.00000000       2.42424242       0.00000000       0.00000000       1.70890045
2
Properties=species:S:1:pos:R:3:forces:R:3 energy=-4.531786478772587 pbc="F F F"
Mg       0.00000000       0.00000000       0.00000000       0.00000000       0.00000000      -1.51965117
Mg       0.00000000       0.00000000       2.48383838       0.00000000       0.00000000       1.51965117
2
Properties=species:S:1:pos:R:3:forces:R:3 energy=-4.61983866842118 pbc="F F F"
Mg       0.00000000       0.00000000       0.00000000       0.00000000       0.00000000      -1.44943130
Mg       0.00000000       0.00000000       2.54343434       0.00000000       0.00000000       1.44943130
2
Properties=species:S:1:pos:R:3:forces:R:3 energy=-4.705525998711308 pbc="F F F"
Mg       0.00000000       0.00000000       0.00000000       0.00000000       0.00000000      -1.42887056
Mg       0.00000000       0.00000000       2.60303030       0.00000000       0.00000000       1.42887056
2
Properties=species:S:1:pos:R:3:forces:R:3 energy=-4.789907428033065 pbc="F F F"
Mg       0.00000000       0.00000000       0.00000000       0.00000000       0.00000000      -1.39699423
Mg       0.00000000       0.00000000       2.66262626       0.00000000       0.00000000       1.39699423
2
Properties=species:S:1:pos:R:3:forces:R:3 energy=-4.871028275346376 pbc="F F F"
Mg       0.00000000       0.00000000       0.00000000       0.00000000       0.00000000      -1.31528580
Mg       0.00000000       0.00000000       2.72222222       0.00000000       0.00000000       1.31528580
2
Properties=species:S:1:pos:R:3:forces:R:3 energy=-4.945437023342133 pbc="F F F"
Mg       0.00000000       0.00000000       0.00000000       0.00000000       0.00000000      -1.17182672
Mg       0.00000000       0.00000000       2.78181818       0.00000000       0.00000000       1.17182672
2
Properties=species:S:1:pos:R:3:forces:R:3 energy=-5.0096741038365 pbc="F F F"
Mg       0.00000000       0.00000000       0.00000000       0.00000000       0.00000000      -0.97713417
Mg       0.00000000       0.00000000       2.84141414       0.00000000       0.00000000       0.97713417
2
Properties=species:S:1:pos:R:3:forces:R:3 energy=-5.061348252205584 pbc="F F F"
Mg       0.00000000       0.00000000       0.00000000       0.00000000       0.00000000      -0.75459361
Mg       0.00000000       0.00000000       2.90101010       0.00000000       0.00000000       0.75459361
2
Properties=species:S:1:pos:R:3:forces:R:3 energy=-5.0995846848932045 pbc="F F F"
Mg       0.00000000       0.00000000       0.00000000       0.00000000       0.00000000      -0.53035092
Mg       0.00000000       0.00000000       2.96060606       0.00000000       0.00000000       0.53035092
2
Properties=species:S:1:pos:R:3:forces:R:3 energy=-5.124980535840035 pbc="F F F"
Mg       0.00000000       0.00000000       0.00000000       0.00000000       0.00000000      -0.32695216
Mg       0.00000000       0.00000000       3.02020202       0.00000000       0.00000000       0.32695216
2
Properties=species:S:1:pos:R:3:forces:R:3 energy=-5.139302000412756 pbc="F F F"
Mg       0.00000000       0.00000000       0.00000000       0.00000000       0.00000000      -0.16095437
Mg       0.00000000       0.00000000       3.07979798       0.00000000       0.00000000       0.16095437
2
Properties=species:S:1:pos:R:3:forces:R:3 energy=-5.145105323188153 pbc="F F F"
Mg       0.00000000       0.00000000       0.00000000       0.00000000       0.00000000      -0.04202748
Mg       0.00000000       0.00000000       3.13939394       0.00000000       0.00000000       0.04202748
2
Properties=species:S:1:pos:R:3:forces:R:3 energy=-5.145291212283338 pbc="F F F"
Mg       0.00000000       0.00000000       0.00000000       0.00000000       0.00000000       0.02786682
Mg       0.00000000       0.00000000       3.19898990       0.00000000       0.00000000      -0.02786682
2
Properties=species:S:1:pos:R:3:forces:R:3 energy=-5.14264451929517 pbc="F F F"
Mg       0.00000000       0.00000000       0.00000000       0.00000000       0.00000000       0.05465797
Mg       0.00000000       0.00000000       3.25858586       0.00000000       0.00000000      -0.05465797
2
Properties=species:S:1:pos:R:3:forces:R:3 energy=-5.139392287224592 pbc="F F F"
Mg       0.00000000       0.00000000       0.00000000       0.00000000       0.00000000       0.05050523
Mg       0.00000000       0.00000000       3.31818182       0.00000000       0.00000000      -0.05050523
2
Properties=species:S:1:pos:R:3:forces:R:3 energy=-5.1369545183406125 pbc="F F F"
Mg       0.00000000       0.00000000       0.00000000       0.00000000       0.00000000       0.02961426
Mg       0.00000000       0.00000000       3.37777778       0.00000000       0.00000000      -0.02961426
2
Properties=species:S:1:pos:R:3:forces:R:3 energy=-5.135959510784016 pbc="F F F"
Mg       0.00000000       0.00000000       0.00000000       0.00000000       0.00000000       0.00373333
Mg       0.00000000       0.00000000       3.43737374       0.00000000       0.00000000      -0.00373333
2
Properties=species:S:1:pos:R:3:forces:R:3 energy=-5.136446326403862 pbc="F F F"
Mg       0.00000000       0.00000000       0.00000000       0.00000000       0.00000000      -0.01902100
Mg       0.00000000       0.00000000       3.49696970       0.00000000       0.00000000       0.01902100
2
Properties=species:S:1:pos:R:3:forces:R:3 energy=-5.138053979679795 pbc="F F F"
Mg       0.00000000       0.00000000       0.00000000       0.00000000       0.00000000      -0.03316275
Mg       0.00000000       0.00000000       3.55656566       0.00000000       0.00000000       0.03316275
2
Properties=species:S:1:pos:R:3:forces:R:3 energy=-5.140162317640141 pbc="F F F"
Mg       0.00000000       0.00000000       0.00000000       0.00000000       0.00000000      -0.03549377
Mg       0.00000000       0.00000000       3.61616162       0.00000000       0.00000000       0.03549377
2
Properties=species:S:1:pos:R:3:forces:R:3 energy=-5.1420333267965805 pbc="F F F"
Mg       0.00000000       0.00000000       0.00000000       0.00000000       0.00000000      -0.02524294
Mg       0.00000000       0.00000000       3.67575758       0.00000000       0.00000000       0.02524294
2
Properties=species:S:1:pos:R:3:forces:R:3 energy=-5.142948085064285 pbc="F F F"
Mg       0.00000000       0.00000000       0.00000000       0.00000000       0.00000000      -0.00378437
Mg       0.00000000       0.00000000       3.73535354       0.00000000       0.00000000       0.00378437
2
Properties=species:S:1:pos:R:3:forces:R:3 energy=-5.142316562844871 pbc="F F F"
Mg       0.00000000       0.00000000       0.00000000       0.00000000       0.00000000       0.02609930
Mg       0.00000000       0.00000000       3.79494949       0.00000000       0.00000000      -0.02609930
2
Properties=species:S:1:pos:R:3:forces:R:3 energy=-5.1397360135960435 pbc="F F F"
Mg       0.00000000       0.00000000       0.00000000       0.00000000       0.00000000       0.06107918
Mg       0.00000000       0.00000000       3.85454545       0.00000000       0.00000000      -0.06107918
2
Properties=species:S:1:pos:R:3:forces:R:3 energy=-5.134999261653585 pbc="F F F"
Mg       0.00000000       0.00000000       0.00000000       0.00000000       0.00000000       0.09795301
Mg       0.00000000       0.00000000       3.91414141       0.00000000       0.00000000      -0.09795301
2
Properties=species:S:1:pos:R:3:forces:R:3 energy=-5.128076735659094 pbc="F F F"
Mg       0.00000000       0.00000000       0.00000000       0.00000000       0.00000000       0.13402194
Mg       0.00000000       0.00000000       3.97373737       0.00000000       0.00000000      -0.13402194
2
Properties=species:S:1:pos:R:3:forces:R:3 energy=-5.1190827459305055 pbc="F F F"
Mg       0.00000000       0.00000000       0.00000000       0.00000000       0.00000000       0.16718560
Mg       0.00000000       0.00000000       4.03333333       0.00000000       0.00000000      -0.16718560
2
Properties=species:S:1:pos:R:3:forces:R:3 energy=-5.108238820110129 pbc="F F F"
Mg       0.00000000       0.00000000       0.00000000       0.00000000       0.00000000       0.19588669
Mg       0.00000000       0.00000000       4.09292929       0.00000000       0.00000000      -0.19588669
2
Properties=species:S:1:pos:R:3:forces:R:3 energy=-5.095846136812476 pbc="F F F"
Mg       0.00000000       0.00000000       0.00000000       0.00000000       0.00000000       0.21898517
Mg       0.00000000       0.00000000       4.15252525       0.00000000       0.00000000      -0.21898517
2
Properties=species:S:1:pos:R:3:forces:R:3 energy=-5.082265403349026 pbc="F F F"
Mg       0.00000000       0.00000000       0.00000000       0.00000000       0.00000000       0.23566920
Mg       0.00000000       0.00000000       4.21212121       0.00000000       0.00000000      -0.23566920
2
Properties=species:S:1:pos:R:3:forces:R:3 energy=-5.067894176620895 pbc="F F F"
Mg       0.00000000       0.00000000       0.00000000       0.00000000       0.00000000       0.24541819
Mg       0.00000000       0.00000000       4.27171717       0.00000000       0.00000000      -0.24541819
2
Properties=species:S:1:pos:R:3:forces:R:3 energy=-5.053155572666414 pbc="F F F"
Mg       0.00000000       0.00000000       0.00000000       0.00000000       0.00000000       0.24802198
Mg       0.00000000       0.00000000       4.33131313       0.00000000       0.00000000      -0.24802198
2
Properties=species:S:1:pos:R:3:forces:R:3 energy=-5.038471200984708 pbc="F F F"
Mg       0.00000000       0.00000000       0.00000000       0.00000000       0.00000000       0.24362881
Mg       0.00000000       0.00000000       4.39090909       0.00000000       0.00000000      -0.24362881
2
Properties=species:S:1:pos:R:3:forces:R:3 energy=-5.024244503745558 pbc="F F F"
Mg       0.00000000       0.00000000       0.00000000       0.00000000       0.00000000       0.23279546
Mg       0.00000000       0.00000000       4.45050505       0.00000000       0.00000000      -0.23279546
2
Properties=species:S:1:pos:R:3:forces:R:3 energy=-5.010832717431731 pbc="F F F"
Mg       0.00000000       0.00000000       0.00000000       0.00000000       0.00000000       0.21650311
Mg       0.00000000       0.00000000       4.51010101       0.00000000       0.00000000      -0.21650311
2
Properties=species:S:1:pos:R:3:forces:R:3 energy=-4.998521072947282 pbc="F F F"
Mg       0.00000000       0.00000000       0.00000000       0.00000000       0.00000000       0.19610451
Mg       0.00000000       0.00000000       4.56969697       0.00000000       0.00000000      -0.19610451
2
Properties=species:S:1:pos:R:3:forces:R:3 energy=-4.987508156217651 pbc="F F F"
Mg       0.00000000       0.00000000       0.00000000       0.00000000       0.00000000       0.17319840
Mg       0.00000000       0.00000000       4.62929293       0.00000000       0.00000000      -0.17319840
2
Properties=species:S:1:pos:R:3:forces:R:3 energy=-4.9778943484723515 pbc="F F F"
Mg       0.00000000       0.00000000       0.00000000       0.00000000       0.00000000       0.14943722
Mg       0.00000000       0.00000000       4.68888889       0.00000000       0.00000000      -0.14943722
2
Properties=species:S:1:pos:R:3:forces:R:3 energy=-4.969683822292627 pbc="F F F"
Mg       0.00000000       0.00000000       0.00000000       0.00000000       0.00000000       0.12630138
Mg       0.00000000       0.00000000       4.74848485       0.00000000       0.00000000      -0.12630138
2
Properties=species:S:1:pos:R:3:forces:R:3 energy=-4.962805031354052 pbc="F F F"
Mg       0.00000000       0.00000000       0.00000000       0.00000000       0.00000000       0.10493113
Mg       0.00000000       0.00000000       4.80808081       0.00000000       0.00000000      -0.10493113
2
Properties=species:S:1:pos:R:3:forces:R:3 energy=-4.957127863892943 pbc="F F F"
Mg       0.00000000       0.00000000       0.00000000       0.00000000       0.00000000       0.08601897
Mg       0.00000000       0.00000000       4.86767677       0.00000000       0.00000000      -0.08601897
2
Properties=species:S:1:pos:R:3:forces:R:3 energy=-4.952497501312407 pbc="F F F"
Mg       0.00000000       0.00000000       0.00000000       0.00000000       0.00000000       0.06983480
Mg       0.00000000       0.00000000       4.92727273       0.00000000       0.00000000      -0.06983480
2
Properties=species:S:1:pos:R:3:forces:R:3 energy=-4.948751105898972 pbc="F F F"
Mg       0.00000000       0.00000000       0.00000000       0.00000000       0.00000000       0.05631991
Mg       0.00000000       0.00000000       4.98686869       0.00000000       0.00000000      -0.05631991
2
Properties=species:S:1:pos:R:3:forces:R:3 energy=-4.945736393713089 pbc="F F F"
Mg       0.00000000       0.00000000       0.00000000       0.00000000       0.00000000       0.04523864
Mg       0.00000000       0.00000000       5.04646465       0.00000000       0.00000000      -0.04523864
2
Properties=species:S:1:pos:R:3:forces:R:3 energy=-4.943315910284448 pbc="F F F"
Mg       0.00000000       0.00000000       0.00000000       0.00000000       0.00000000       0.03633185
Mg       0.00000000       0.00000000       5.10606061       0.00000000       0.00000000      -0.03633185
2
Properties=species:S:1:pos:R:3:forces:R:3 energy=-4.941365129598982 pbc="F F F"
Mg       0.00000000       0.00000000       0.00000000       0.00000000       0.00000000       0.02948933
Mg       0.00000000       0.00000000       5.16565657       0.00000000       0.00000000      -0.02948933
2
Properties=species:S:1:pos:R:3:forces:R:3 energy=-4.93975669471399 pbc="F F F"
Mg       0.00000000       0.00000000       0.00000000       0.00000000       0.00000000       0.02488895
Mg       0.00000000       0.00000000       5.22525253       0.00000000       0.00000000      -0.02488895
2
Properties=species:S:1:pos:R:3:forces:R:3 energy=-4.938345585121071 pbc="F F F"
Mg       0.00000000       0.00000000       0.00000000       0.00000000       0.00000000       0.02295280
Mg       0.00000000       0.00000000       5.28484848       0.00000000       0.00000000      -0.02295280
2
Properties=species:S:1:pos:R:3:forces:R:3 energy=-4.936965819275752 pbc="F F F"
Mg       0.00000000       0.00000000       0.00000000       0.00000000       0.00000000       0.02371605
Mg       0.00000000       0.00000000       5.34444444       0.00000000       0.00000000      -0.02371605
2
Properties=species:S:1:pos:R:3:forces:R:3 energy=-4.935502871281046 pbc="F F F"
Mg       0.00000000       0.00000000       0.00000000       0.00000000       0.00000000       0.02514074
Mg       0.00000000       0.00000000       5.40404040       0.00000000       0.00000000      -0.02514074
2
Properties=species:S:1:pos:R:3:forces:R:3 energy=-4.934049122968853 pbc="F F F"
Mg       0.00000000       0.00000000       0.00000000       0.00000000       0.00000000       0.02269550
Mg       0.00000000       0.00000000       5.46363636       0.00000000       0.00000000      -0.02269550
2
Properties=species:S:1:pos:R:3:forces:R:3 energy=-4.932878104397985 pbc="F F F"
Mg       0.00000000       0.00000000       0.00000000       0.00000000       0.00000000       0.01661302
Mg       0.00000000       0.00000000       5.52323232       0.00000000       0.00000000      -0.01661302
2
Properties=species:S:1:pos:R:3:forces:R:3 energy=-4.931984794323272 pbc="F F F"
Mg       0.00000000       0.00000000       0.00000000       0.00000000       0.00000000       0.01435780
Mg       0.00000000       0.00000000       5.58282828       0.00000000       0.00000000      -0.01435780
2
Properties=species:S:1:pos:R:3:forces:R:3 energy=-4.931098018753619 pbc="F F F"
Mg       0.00000000       0.00000000       0.00000000       0.00000000       0.00000000       0.01534309
Mg       0.00000000       0.00000000       5.64242424       0.00000000       0.00000000      -0.01534309
2
Properties=species:S:1:pos:R:3:forces:R:3 energy=-4.930233087003393 pbc="F F F"
Mg       0.00000000       0.00000000       0.00000000       0.00000000       0.00000000       0.01262688
Mg       0.00000000       0.00000000       5.70202020       0.00000000       0.00000000      -0.01262688
2
Properties=species:S:1:pos:R:3:forces:R:3 energy=-4.929697529577433 pbc="F F F"
Mg       0.00000000       0.00000000       0.00000000       0.00000000       0.00000000       0.00512126
Mg       0.00000000       0.00000000       5.76161616       0.00000000       0.00000000      -0.00512126
2
Properties=species:S:1:pos:R:3:forces:R:3 energy=-4.929541261370078 pbc="F F F"
Mg       0.00000000       0.00000000       0.00000000       0.00000000       0.00000000       0.00138467
Mg       0.00000000       0.00000000       5.82121212       0.00000000       0.00000000      -0.00138467
2
Properties=species:S:1:pos:R:3:forces:R:3 energy=-4.929413093278337 pbc="F F F"
Mg       0.00000000       0.00000000       0.00000000       0.00000000       0.00000000       0.00332750
Mg       0.00000000       0.00000000       5.88080808       0.00000000       0.00000000      -0.00332750
2
Properties=species:S:1:pos:R:3:forces:R:3 energy=-4.929143871576186 pbc="F F F"
Mg       0.00000000       0.00000000       0.00000000       0.00000000       0.00000000       0.00553663
Mg       0.00000000       0.00000000       5.94040404       0.00000000       0.00000000      -0.00553663
2
Properties=species:S:1:pos:R:3:forces:R:3 energy=-4.928785601528256 pbc="F F F"
Mg       0.00000000       0.00000000       0.00000000       0.00000000       0.00000000       0.00619223
Mg       0.00000000       0.00000000       6.00000000       0.00000000       0.00000000      -0.00619223
