2
Properties=species:S:1:pos:R:3:forces:R:3 energy=-1387.2016505262902 pbc="F F F"
N        0.00000000       0.00000000       0.00000000       0.00000000       0.00000000  -30012.40039062
N        0.00000000       0.00000000       0.10000000       0.00000000       0.00000000   30012.40039062
2
Properties=species:S:1:pos:R:3:forces:R:3 energy=-2140.5201319716025 pbc="F F F"
N        0.00000000       0.00000000       0.00000000       0.00000000       0.00000000    -314.28482056
N        0.00000000       0.00000000       0.15959596       0.00000000       0.00000000     314.28482056
2
Properties=species:S:1:pos:R:3:forces:R:3 energy=-1676.6867579481652 pbc="F F F"
N        0.00000000       0.00000000       0.00000000       0.00000000       0.00000000   14095.55664062
N        0.00000000       0.00000000       0.21919192       0.00000000       0.00000000  -14095.55664062
2
Properties=species:S:1:pos:R:3:forces:R:3 energy=-426.80187025245675 pbc="F F F"
N        0.00000000       0.00000000       0.00000000       0.00000000       0.00000000   22773.36132812
N        0.00000000       0.00000000       0.27878788       0.00000000       0.00000000  -22773.36132812
2
Properties=species:S:1:pos:R:3:forces:R:3 energy=772.4359837514495 pbc="F F F"
N        0.00000000       0.00000000       0.00000000       0.00000000       0.00000000   11585.16210938
N        0.00000000       0.00000000       0.33838384       0.00000000       0.00000000  -11585.16210938
2
Properties=species:S:1:pos:R:3:forces:R:3 energy=609.4594822877937 pbc="F F F"
N        0.00000000       0.00000000       0.00000000       0.00000000       0.00000000   -9483.28222656
N        0.00000000       0.00000000       0.39797980       0.00000000       0.00000000    9483.28222656
2
Properties=species:S:1:pos:R:3:forces:R:3 energy=275.33527574640885 pbc="F F F"
N        0.00000000       0.00000000       0.00000000       0.00000000       0.00000000   -4309.90429688
N        0.00000000       0.00000000       0.45757576       0.00000000       0.00000000    4309.90429688
2
Properties=species:S:1:pos:R:3:forces:R:3 energy=107.22537432214598 pbc="F F F"
N        0.00000000       0.00000000       0.00000000       0.00000000       0.00000000   -1817.19360352
N        0.00000000       0.00000000       0.51717172       0.00000000       0.00000000    1817.19360352
2
Properties=species:S:1:pos:R:3:forces:R:3 energy=40.103197204656176 pbc="F F F"
N        0.00000000       0.00000000       0.00000000       0.00000000       0.00000000    -457.21441650
N        0.00000000       0.00000000       0.57676768       0.00000000       0.00000000     457.21441650
2
Properties=species:S:1:pos:R:3:forces:R:3 energy=25.65179645870963 pbc="F F F"
N        0.00000000       0.00000000       0.00000000       0.00000000       0.00000000    -134.84111023
N        0.00000000       0.00000000       0.63636364       0.00000000       0.00000000     134.84111023
2
Properties=species:S:1:pos:R:3:forces:R:3 energy=16.7765675944947 pbc="F F F"
N        0.00000000       0.00000000       0.00000000       0.00000000       0.00000000    -222.77581787
N        0.00000000       0.00000000       0.69595960       0.00000000       0.00000000     222.77581787
2
Properties=species:S:1:pos:R:3:forces:R:3 energy=5.184365434638728 pbc="F F F"
N        0.00000000       0.00000000       0.00000000       0.00000000       0.00000000    -173.08663940
N        0.00000000       0.00000000       0.75555556       0.00000000       0.00000000     173.08663940
2
Properties=species:S:1:pos:R:3:forces:R:3 energy=-3.6987655523912077 pbc="F F F"
N        0.00000000       0.00000000       0.00000000       0.00000000       0.00000000    -127.23953247
N        0.00000000       0.00000000       0.81515152       0.00000000       0.00000000     127.23953247
2
Properties=species:S:1:pos:R:3:forces:R:3 energy=-10.213597991617497 pbc="F F F"
N        0.00000000       0.00000000       0.00000000       0.00000000       0.00000000     -88.35135651
N        0.00000000       0.00000000       0.87474747       0.00000000       0.00000000      88.35135651
2
Properties=species:S:1:pos:R:3:forces:R:3 energy=-14.296250002422036 pbc="F F F"
N        0.00000000       0.00000000       0.00000000       0.00000000       0.00000000     -51.88903809
N        0.00000000       0.00000000       0.93434343       0.00000000       0.00000000      51.88903809
2
Properties=species:S:1:pos:R:3:forces:R:3 energy=-16.627683186761928 pbc="F F F"
N        0.00000000       0.00000000       0.00000000       0.00000000       0.00000000     -27.73762131
N        0.00000000       0.00000000       0.99393939       0.00000000       0.00000000      27.73762131
2
Properties=species:S:1:pos:R:3:forces:R:3 energy=-17.747830740378557 pbc="F F F"
N        0.00000000       0.00000000       0.00000000       0.00000000       0.00000000     -10.90162659
N        0.00000000       0.00000000       1.05353535       0.00000000       0.00000000      10.90162659
2
Properties=species:S:1:pos:R:3:forces:R:3 energy=-18.033356815450585 pbc="F F F"
N        0.00000000       0.00000000       0.00000000       0.00000000       0.00000000       0.54785448
N        0.00000000       0.00000000       1.11313131       0.00000000       0.00000000      -0.54785448
2
Properties=species:S:1:pos:R:3:forces:R:3 energy=-17.761782535501414 pbc="F F F"
N        0.00000000       0.00000000       0.00000000       0.00000000       0.00000000       8.05849648
N        0.00000000       0.00000000       1.17272727       0.00000000       0.00000000      -8.05849648
2
Properties=species:S:1:pos:R:3:forces:R:3 energy=-17.112085858128133 pbc="F F F"
N        0.00000000       0.00000000       0.00000000       0.00000000       0.00000000      13.49815083
N        0.00000000       0.00000000       1.23232323       0.00000000       0.00000000     -13.49815083
2
Properties=species:S:1:pos:R:3:forces:R:3 energy=-16.179424404443875 pbc="F F F"
N        0.00000000       0.00000000       0.00000000       0.00000000       0.00000000      17.67944908
N        0.00000000       0.00000000       1.29191919       0.00000000       0.00000000     -17.67944908
2
Properties=species:S:1:pos:R:3:forces:R:3 energy=-15.003404287221963 pbc="F F F"
N        0.00000000       0.00000000       0.00000000       0.00000000       0.00000000      21.86187744
N        0.00000000       0.00000000       1.35151515       0.00000000       0.00000000     -21.86187744
2
Properties=species:S:1:pos:R:3:forces:R:3 energy=-13.648905935764875 pbc="F F F"
N        0.00000000       0.00000000       0.00000000       0.00000000       0.00000000      21.41993141
N        0.00000000       0.00000000       1.41111111       0.00000000       0.00000000     -21.41993141
2
Properties=species:S:1:pos:R:3:forces:R:3 energy=-12.749451522158248 pbc="F F F"
N        0.00000000       0.00000000       0.00000000       0.00000000       0.00000000       8.66369629
N        0.00000000       0.00000000       1.47070707       0.00000000       0.00000000      -8.66369629
2
Properties=species:S:1:pos:R:3:forces:R:3 energy=-12.195546156860866 pbc="F F F"
N        0.00000000       0.00000000       0.00000000       0.00000000       0.00000000      13.91447830
N        0.00000000       0.00000000       1.53030303       0.00000000       0.00000000     -13.91447830
2
Properties=species:S:1:pos:R:3:forces:R:3 energy=-11.298299902440226 pbc="F F F"
N        0.00000000       0.00000000       0.00000000       0.00000000       0.00000000       8.70016384
N        0.00000000       0.00000000       1.58989899       0.00000000       0.00000000      -8.70016384
2
Properties=species:S:1:pos:R:3:forces:R:3 energy=-11.323600136382913 pbc="F F F"
N        0.00000000       0.00000000       0.00000000       0.00000000       0.00000000      -2.74351263
N        0.00000000       0.00000000       1.64949495       0.00000000       0.00000000       2.74351263
2
Properties=species:S:1:pos:R:3:forces:R:3 energy=-11.49443101952479 pbc="F F F"
N        0.00000000       0.00000000       0.00000000       0.00000000       0.00000000      -5.70062542
N        0.00000000       0.00000000       1.70909091       0.00000000       0.00000000       5.70062542
2
Properties=species:S:1:pos:R:3:forces:R:3 energy=-11.694666397244431 pbc="F F F"
N        0.00000000       0.00000000       0.00000000       0.00000000       0.00000000       2.76860166
N        0.00000000       0.00000000       1.76868687       0.00000000       0.00000000      -2.76860166
2
Properties=species:S:1:pos:R:3:forces:R:3 energy=-11.271764018132124 pbc="F F F"
N        0.00000000       0.00000000       0.00000000       0.00000000       0.00000000       8.15115833
N        0.00000000       0.00000000       1.82828283       0.00000000       0.00000000      -8.15115833
2
Properties=species:S:1:pos:R:3:forces:R:3 energy=-10.865223613560016 pbc="F F F"
N        0.00000000       0.00000000       0.00000000       0.00000000       0.00000000       5.46659136
N        0.00000000       0.00000000       1.88787879       0.00000000       0.00000000      -5.46659136
2
Properties=species:S:1:pos:R:3:forces:R:3 energy=-10.648665456207171 pbc="F F F"
N        0.00000000       0.00000000       0.00000000       0.00000000       0.00000000       1.95793867
N        0.00000000       0.00000000       1.94747475       0.00000000       0.00000000      -1.95793867
2
Properties=species:S:1:pos:R:3:forces:R:3 energy=-10.475568551841517 pbc="F F F"
N        0.00000000       0.00000000       0.00000000       0.00000000       0.00000000       5.50398731
N        0.00000000       0.00000000       2.00707071       0.00000000       0.00000000      -5.50398731
2
Properties=species:S:1:pos:R:3:forces:R:3 energy=-10.009801017007888 pbc="F F F"
N        0.00000000       0.00000000       0.00000000       0.00000000       0.00000000       8.39995480
N        0.00000000       0.00000000       2.06666667       0.00000000       0.00000000      -8.39995480
2
Properties=species:S:1:pos:R:3:forces:R:3 energy=-9.611265319904525 pbc="F F F"
N        0.00000000       0.00000000       0.00000000       0.00000000       0.00000000       4.91543579
N        0.00000000       0.00000000       2.12626263       0.00000000       0.00000000      -4.91543579
2
Properties=species:S:1:pos:R:3:forces:R:3 energy=-9.393721846767404 pbc="F F F"
N        0.00000000       0.00000000       0.00000000       0.00000000       0.00000000       2.57901645
N        0.00000000       0.00000000       2.18585859       0.00000000       0.00000000      -2.57901645
2
Properties=species:S:1:pos:R:3:forces:R:3 energy=-9.285474894801354 pbc="F F F"
N        0.00000000       0.00000000       0.00000000       0.00000000       0.00000000       1.22115505
N        0.00000000       0.00000000       2.24545455       0.00000000       0.00000000      -1.22115505
2
Properties=species:S:1:pos:R:3:forces:R:3 energy=-9.229878576530817 pbc="F F F"
N        0.00000000       0.00000000       0.00000000       0.00000000       0.00000000       0.75545228
N        0.00000000       0.00000000       2.30505051       0.00000000       0.00000000      -0.75545228
2
Properties=species:S:1:pos:R:3:forces:R:3 energy=-9.188187587976493 pbc="F F F"
N        0.00000000       0.00000000       0.00000000       0.00000000       0.00000000       0.66581923
N        0.00000000       0.00000000       2.36464646       0.00000000       0.00000000      -0.66581923
2
Properties=species:S:1:pos:R:3:forces:R:3 energy=-9.149981347076817 pbc="F F F"
N        0.00000000       0.00000000       0.00000000       0.00000000       0.00000000       0.61402225
N        0.00000000       0.00000000       2.42424242       0.00000000       0.00000000      -0.61402225
2
Properties=species:S:1:pos:R:3:forces:R:3 energy=-9.115076796870314 pbc="F F F"
N        0.00000000       0.00000000       0.00000000       0.00000000       0.00000000       0.55992097
N        0.00000000       0.00000000       2.48383838       0.00000000       0.00000000      -0.55992097
2
Properties=species:S:1:pos:R:3:forces:R:3 energy=-9.082680444489748 pbc="F F F"
N        0.00000000       0.00000000       0.00000000       0.00000000       0.00000000       0.53262651
N        0.00000000       0.00000000       2.54343434       0.00000000       0.00000000      -0.53262651
2
Properties=species:S:1:pos:R:3:forces:R:3 energy=-9.051100391512316 pbc="F F F"
N        0.00000000       0.00000000       0.00000000       0.00000000       0.00000000       0.52939141
N        0.00000000       0.00000000       2.60303030       0.00000000       0.00000000      -0.52939141
2
Properties=species:S:1:pos:R:3:forces:R:3 energy=-9.019566917830568 pbc="F F F"
N        0.00000000       0.00000000       0.00000000       0.00000000       0.00000000       0.52721953
N        0.00000000       0.00000000       2.66262626       0.00000000       0.00000000      -0.52721953
2
Properties=species:S:1:pos:R:3:forces:R:3 energy=-8.988576768970024 pbc="F F F"
N        0.00000000       0.00000000       0.00000000       0.00000000       0.00000000       0.50960839
N        0.00000000       0.00000000       2.72222222       0.00000000       0.00000000      -0.50960839
2
Properties=species:S:1:pos:R:3:forces:R:3 energy=-8.95918839928286 pbc="F F F"
N        0.00000000       0.00000000       0.00000000       0.00000000       0.00000000       0.47406179
N        0.00000000       0.00000000       2.78181818       0.00000000       0.00000000      -0.47406179
2
Properties=species:S:1:pos:R:3:forces:R:3 energy=-8.93230290586911 pbc="F F F"
N        0.00000000       0.00000000       0.00000000       0.00000000       0.00000000       0.42699143
N        0.00000000       0.00000000       2.84141414       0.00000000       0.00000000      -0.42699143
2
Properties=species:S:1:pos:R:3:forces:R:3 energy=-8.908355995930215 pbc="F F F"
N        0.00000000       0.00000000       0.00000000       0.00000000       0.00000000       0.37668654
N        0.00000000       0.00000000       2.90101010       0.00000000       0.00000000      -0.37668654
2
Properties=species:S:1:pos:R:3:forces:R:3 energy=-8.887351370121845 pbc="F F F"
N        0.00000000       0.00000000       0.00000000       0.00000000       0.00000000       0.32896271
N        0.00000000       0.00000000       2.96060606       0.00000000       0.00000000      -0.32896271
2
Properties=species:S:1:pos:R:3:forces:R:3 energy=-8.869050504336824 pbc="F F F"
N        0.00000000       0.00000000       0.00000000       0.00000000       0.00000000       0.28593579
N        0.00000000       0.00000000       3.02020202       0.00000000       0.00000000      -0.28593579
2
Properties=species:S:1:pos:R:3:forces:R:3 energy=-8.853190096754746 pbc="F F F"
N        0.00000000       0.00000000       0.00000000       0.00000000       0.00000000       0.24685881
N        0.00000000       0.00000000       3.07979798       0.00000000       0.00000000      -0.24685881
2
Properties=species:S:1:pos:R:3:forces:R:3 energy=-8.839588877979498 pbc="F F F"
N        0.00000000       0.00000000       0.00000000       0.00000000       0.00000000       0.20976362
N        0.00000000       0.00000000       3.13939394       0.00000000       0.00000000      -0.20976362
2
Properties=species:S:1:pos:R:3:forces:R:3 energy=-8.828184808891335 pbc="F F F"
N        0.00000000       0.00000000       0.00000000       0.00000000       0.00000000       0.17288877
N        0.00000000       0.00000000       3.19898990       0.00000000       0.00000000      -0.17288877
2
Properties=species:S:1:pos:R:3:forces:R:3 energy=-8.818992168866448 pbc="F F F"
N        0.00000000       0.00000000       0.00000000       0.00000000       0.00000000       0.13550892
N        0.00000000       0.00000000       3.25858586       0.00000000       0.00000000      -0.13550892
2
Properties=species:S:1:pos:R:3:forces:R:3 energy=-8.81203480293057 pbc="F F F"
N        0.00000000       0.00000000       0.00000000       0.00000000       0.00000000       0.09808932
N        0.00000000       0.00000000       3.31818182       0.00000000       0.00000000      -0.09808932
2
Properties=species:S:1:pos:R:3:forces:R:3 energy=-8.807274598165135 pbc="F F F"
N        0.00000000       0.00000000       0.00000000       0.00000000       0.00000000       0.06201202
N        0.00000000       0.00000000       3.37777778       0.00000000       0.00000000      -0.06201202
2
Properties=species:S:1:pos:R:3:forces:R:3 energy=-8.804580965139202 pbc="F F F"
N        0.00000000       0.00000000       0.00000000       0.00000000       0.00000000       0.02906295
N        0.00000000       0.00000000       3.43737374       0.00000000       0.00000000      -0.02906295
2
Properties=species:S:1:pos:R:3:forces:R:3 energy=-8.803714632375696 pbc="F F F"
N        0.00000000       0.00000000       0.00000000       0.00000000       0.00000000       0.00095776
N        0.00000000       0.00000000       3.49696970       0.00000000       0.00000000      -0.00095776
2
Properties=species:S:1:pos:R:3:forces:R:3 energy=-8.804344810113232 pbc="F F F"
N        0.00000000       0.00000000       0.00000000       0.00000000       0.00000000      -0.02101179
N        0.00000000       0.00000000       3.55656566       0.00000000       0.00000000       0.02101179
2
Properties=species:S:1:pos:R:3:forces:R:3 energy=-8.806082569303168 pbc="F F F"
N        0.00000000       0.00000000       0.00000000       0.00000000       0.00000000      -0.03618801
N        0.00000000       0.00000000       3.61616162       0.00000000       0.00000000       0.03618801
2
Properties=species:S:1:pos:R:3:forces:R:3 energy=-8.808523756359875 pbc="F F F"
N        0.00000000       0.00000000       0.00000000       0.00000000       0.00000000      -0.04460150
N        0.00000000       0.00000000       3.67575758       0.00000000       0.00000000       0.04460150
2
Properties=species:S:1:pos:R:3:forces:R:3 energy=-8.81127760061839 pbc="F F F"
N        0.00000000       0.00000000       0.00000000       0.00000000       0.00000000      -0.04690555
N        0.00000000       0.00000000       3.73535354       0.00000000       0.00000000       0.04690555
2
Properties=species:S:1:pos:R:3:forces:R:3 energy=-8.814015350338623 pbc="F F F"
N        0.00000000       0.00000000       0.00000000       0.00000000       0.00000000      -0.04423299
N        0.00000000       0.00000000       3.79494949       0.00000000       0.00000000       0.04423299
2
Properties=species:S:1:pos:R:3:forces:R:3 energy=-8.816477896556204 pbc="F F F"
N        0.00000000       0.00000000       0.00000000       0.00000000       0.00000000      -0.03794666
N        0.00000000       0.00000000       3.85454545       0.00000000       0.00000000       0.03794666
2
Properties=species:S:1:pos:R:3:forces:R:3 energy=-8.818493887944774 pbc="F F F"
N        0.00000000       0.00000000       0.00000000       0.00000000       0.00000000      -0.02940451
N        0.00000000       0.00000000       3.91414141       0.00000000       0.00000000       0.02940451
2
Properties=species:S:1:pos:R:3:forces:R:3 energy=-8.819960652181942 pbc="F F F"
N        0.00000000       0.00000000       0.00000000       0.00000000       0.00000000      -0.01974256
N        0.00000000       0.00000000       3.97373737       0.00000000       0.00000000       0.01974256
2
Properties=species:S:1:pos:R:3:forces:R:3 energy=-8.820840375510343 pbc="F F F"
N        0.00000000       0.00000000       0.00000000       0.00000000       0.00000000      -0.00980394
N        0.00000000       0.00000000       4.03333333       0.00000000       0.00000000       0.00980394
2
Properties=species:S:1:pos:R:3:forces:R:3 energy=-8.821135299879826 pbc="F F F"
N        0.00000000       0.00000000       0.00000000       0.00000000       0.00000000      -0.00018003
N        0.00000000       0.00000000       4.09292929       0.00000000       0.00000000       0.00018003
2
Properties=species:S:1:pos:R:3:forces:R:3 energy=-8.820878181056571 pbc="F F F"
N        0.00000000       0.00000000       0.00000000       0.00000000       0.00000000       0.00861813
N        0.00000000       0.00000000       4.15252525       0.00000000       0.00000000      -0.00861813
2
Properties=species:S:1:pos:R:3:forces:R:3 energy=-8.820136095895784 pbc="F F F"
N        0.00000000       0.00000000       0.00000000       0.00000000       0.00000000       0.01603371
N        0.00000000       0.00000000       4.21212121       0.00000000       0.00000000      -0.01603371
2
Properties=species:S:1:pos:R:3:forces:R:3 energy=-8.819007576863985 pbc="F F F"
N        0.00000000       0.00000000       0.00000000       0.00000000       0.00000000       0.02142398
N        0.00000000       0.00000000       4.27171717       0.00000000       0.00000000      -0.02142398
2
Properties=species:S:1:pos:R:3:forces:R:3 energy=-8.817635956846818 pbc="F F F"
N        0.00000000       0.00000000       0.00000000       0.00000000       0.00000000       0.02413977
N        0.00000000       0.00000000       4.33131313       0.00000000       0.00000000      -0.02413977
2
Properties=species:S:1:pos:R:3:forces:R:3 energy=-8.816193156883655 pbc="F F F"
N        0.00000000       0.00000000       0.00000000       0.00000000       0.00000000       0.02371077
N        0.00000000       0.00000000       4.39090909       0.00000000       0.00000000      -0.02371077
2
Properties=species:S:1:pos:R:3:forces:R:3 energy=-8.814873956796118 pbc="F F F"
N        0.00000000       0.00000000       0.00000000       0.00000000       0.00000000       0.02003015
N        0.00000000       0.00000000       4.45050505       0.00000000       0.00000000      -0.02003015
2
Properties=species:S:1:pos:R:3:forces:R:3 energy=-8.813864525915518 pbc="F F F"
N        0.00000000       0.00000000       0.00000000       0.00000000       0.00000000       0.01344594
N        0.00000000       0.00000000       4.51010101       0.00000000       0.00000000      -0.01344594
2
Properties=species:S:1:pos:R:3:forces:R:3 energy=-8.813314759697064 pbc="F F F"
N        0.00000000       0.00000000       0.00000000       0.00000000       0.00000000       0.00473551
N        0.00000000       0.00000000       4.56969697       0.00000000       0.00000000      -0.00473551
2
Properties=species:S:1:pos:R:3:forces:R:3 energy=-8.81332016822339 pbc="F F F"
N        0.00000000       0.00000000       0.00000000       0.00000000       0.00000000      -0.00503311
N        0.00000000       0.00000000       4.62929293       0.00000000       0.00000000       0.00503311
2
Properties=species:S:1:pos:R:3:forces:R:3 energy=-8.813913286404077 pbc="F F F"
N        0.00000000       0.00000000       0.00000000       0.00000000       0.00000000      -0.01471679
N        0.00000000       0.00000000       4.68888889       0.00000000       0.00000000       0.01471679
2
Properties=species:S:1:pos:R:3:forces:R:3 energy=-8.815052236318502 pbc="F F F"
N        0.00000000       0.00000000       0.00000000       0.00000000       0.00000000      -0.02327750
N        0.00000000       0.00000000       4.74848485       0.00000000       0.00000000       0.02327750
2
Properties=species:S:1:pos:R:3:forces:R:3 energy=-8.816649334970467 pbc="F F F"
N        0.00000000       0.00000000       0.00000000       0.00000000       0.00000000      -0.02993344
N        0.00000000       0.00000000       4.80808081       0.00000000       0.00000000       0.02993344
2
Properties=species:S:1:pos:R:3:forces:R:3 energy=-8.818573008368448 pbc="F F F"
N        0.00000000       0.00000000       0.00000000       0.00000000       0.00000000      -0.03423493
N        0.00000000       0.00000000       4.86767677       0.00000000       0.00000000       0.03423493
2
Properties=species:S:1:pos:R:3:forces:R:3 energy=-8.820680215759404 pbc="F F F"
N        0.00000000       0.00000000       0.00000000       0.00000000       0.00000000      -0.03610510
N        0.00000000       0.00000000       4.92727273       0.00000000       0.00000000       0.03610510
2
Properties=species:S:1:pos:R:3:forces:R:3 energy=-8.822832665556948 pbc="F F F"
N        0.00000000       0.00000000       0.00000000       0.00000000       0.00000000      -0.03579723
N        0.00000000       0.00000000       4.98686869       0.00000000       0.00000000       0.03579723
2
Properties=species:S:1:pos:R:3:forces:R:3 energy=-8.824914938964657 pbc="F F F"
N        0.00000000       0.00000000       0.00000000       0.00000000       0.00000000      -0.03388161
N        0.00000000       0.00000000       5.04646465       0.00000000       0.00000000       0.03388161
2
Properties=species:S:1:pos:R:3:forces:R:3 energy=-8.826857377516188 pbc="F F F"
N        0.00000000       0.00000000       0.00000000       0.00000000       0.00000000      -0.03125870
N        0.00000000       0.00000000       5.10606061       0.00000000       0.00000000       0.03125870
2
Properties=species:S:1:pos:R:3:forces:R:3 energy=-8.82865134750704 pbc="F F F"
N        0.00000000       0.00000000       0.00000000       0.00000000       0.00000000      -0.02917653
N        0.00000000       0.00000000       5.16565657       0.00000000       0.00000000       0.02917653
2
Properties=species:S:1:pos:R:3:forces:R:3 energy=-8.830377851560458 pbc="F F F"
N        0.00000000       0.00000000       0.00000000       0.00000000       0.00000000      -0.02926784
N        0.00000000       0.00000000       5.22525253       0.00000000       0.00000000       0.02926784
2
Properties=species:S:1:pos:R:3:forces:R:3 energy=-8.832217065568592 pbc="F F F"
N        0.00000000       0.00000000       0.00000000       0.00000000       0.00000000      -0.03323571
N        0.00000000       0.00000000       5.28484848       0.00000000       0.00000000       0.03323571
2
Properties=species:S:1:pos:R:3:forces:R:3 energy=-8.834433084209689 pbc="F F F"
N        0.00000000       0.00000000       0.00000000       0.00000000       0.00000000      -0.04183412
N        0.00000000       0.00000000       5.34444444       0.00000000       0.00000000       0.04183412
2
Properties=species:S:1:pos:R:3:forces:R:3 energy=-8.837255665332865 pbc="F F F"
N        0.00000000       0.00000000       0.00000000       0.00000000       0.00000000      -0.05285818
N        0.00000000       0.00000000       5.40404040       0.00000000       0.00000000       0.05285818
2
Properties=species:S:1:pos:R:3:forces:R:3 energy=-8.840652304172345 pbc="F F F"
N        0.00000000       0.00000000       0.00000000       0.00000000       0.00000000      -0.05973573
N        0.00000000       0.00000000       5.46363636       0.00000000       0.00000000       0.05973573
2
Properties=species:S:1:pos:R:3:forces:R:3 energy=-8.844160386865765 pbc="F F F"
N        0.00000000       0.00000000       0.00000000       0.00000000       0.00000000      -0.05626573
N        0.00000000       0.00000000       5.52323232       0.00000000       0.00000000       0.05626573
2
Properties=species:S:1:pos:R:3:forces:R:3 energy=-8.847204766129915 pbc="F F F"
N        0.00000000       0.00000000       0.00000000       0.00000000       0.00000000      -0.04531708
N        0.00000000       0.00000000       5.58282828       0.00000000       0.00000000       0.04531708
2
Properties=species:S:1:pos:R:3:forces:R:3 energy=-8.849585088192965 pbc="F F F"
N        0.00000000       0.00000000       0.00000000       0.00000000       0.00000000      -0.03540323
N        0.00000000       0.00000000       5.64242424       0.00000000       0.00000000       0.03540323
2
Properties=species:S:1:pos:R:3:forces:R:3 energy=-8.851538737526717 pbc="F F F"
N        0.00000000       0.00000000       0.00000000       0.00000000       0.00000000      -0.03060545
N        0.00000000       0.00000000       5.70202020       0.00000000       0.00000000       0.03060545
2
Properties=species:S:1:pos:R:3:forces:R:3 energy=-8.853184844720138 pbc="F F F"
N        0.00000000       0.00000000       0.00000000       0.00000000       0.00000000      -0.02363199
N        0.00000000       0.00000000       5.76161616       0.00000000       0.00000000       0.02363199
2
Properties=species:S:1:pos:R:3:forces:R:3 energy=-8.854251535352638 pbc="F F F"
N        0.00000000       0.00000000       0.00000000       0.00000000       0.00000000      -0.01198426
N        0.00000000       0.00000000       5.82121212       0.00000000       0.00000000       0.01198426
2
Properties=species:S:1:pos:R:3:forces:R:3 energy=-8.854683422092787 pbc="F F F"
N        0.00000000       0.00000000       0.00000000       0.00000000       0.00000000      -0.00357874
N        0.00000000       0.00000000       5.88080808       0.00000000       0.00000000       0.00357874
2
Properties=species:S:1:pos:R:3:forces:R:3 energy=-8.854783701230998 pbc="F F F"
N        0.00000000       0.00000000       0.00000000       0.00000000       0.00000000      -0.00038196
N        0.00000000       0.00000000       5.94040404       0.00000000       0.00000000       0.00038196
2
Properties=species:S:1:pos:R:3:forces:R:3 energy=-8.85477832482862 pbc="F F F"
N        0.00000000       0.00000000       0.00000000       0.00000000       0.00000000       0.00030492
N        0.00000000       0.00000000       6.00000000       0.00000000       0.00000000      -0.00030492
