2
Properties=species:S:1:pos:R:3:forces:R:3 energy=-41784.53464243919 pbc="F F F"
Nd       0.00000000       0.00000000       0.00000000       0.00000000       0.00000000 -1383946.62500000
Nd       0.00000000       0.00000000       0.10000000       0.00000000       0.00000000 1383946.62500000
2
Properties=species:S:1:pos:R:3:forces:R:3 energy=-81917.66354868919 pbc="F F F"
Nd       0.00000000       0.00000000       0.00000000       0.00000000       0.00000000 -290209.71875000
Nd       0.00000000       0.00000000       0.15959596       0.00000000       0.00000000  290209.71875000
2
Properties=species:S:1:pos:R:3:forces:R:3 energy=-91577.23386118919 pbc="F F F"
Nd       0.00000000       0.00000000       0.00000000       0.00000000       0.00000000  -79604.33593750
Nd       0.00000000       0.00000000       0.21919192       0.00000000       0.00000000   79604.33593750
2
Properties=species:S:1:pos:R:3:forces:R:3 energy=-93954.82761118919 pbc="F F F"
Nd       0.00000000       0.00000000       0.00000000       0.00000000       0.00000000   -9268.54394531
Nd       0.00000000       0.00000000       0.27878788       0.00000000       0.00000000    9268.54394531
2
Properties=species:S:1:pos:R:3:forces:R:3 energy=-93185.28073618919 pbc="F F F"
Nd       0.00000000       0.00000000       0.00000000       0.00000000       0.00000000   33778.62109375
Nd       0.00000000       0.00000000       0.33838384       0.00000000       0.00000000  -33778.62109375
2
Properties=species:S:1:pos:R:3:forces:R:3 energy=-89932.07761118919 pbc="F F F"
Nd       0.00000000       0.00000000       0.00000000       0.00000000       0.00000000   76106.28906250
Nd       0.00000000       0.00000000       0.39797980       0.00000000       0.00000000  -76106.28906250
2
Properties=species:S:1:pos:R:3:forces:R:3 energy=-83989.46042368602 pbc="F F F"
Nd       0.00000000       0.00000000       0.00000000       0.00000000       0.00000000  124378.31250000
Nd       0.00000000       0.00000000       0.45757576       0.00000000       0.00000000 -124378.31250000
2
Properties=species:S:1:pos:R:3:forces:R:3 energy=-70852.00729868286 pbc="F F F"
Nd       0.00000000       0.00000000       0.00000000       0.00000000       0.00000000  254434.34375000
Nd       0.00000000       0.00000000       0.51717172       0.00000000       0.00000000 -254434.34375000
2
Properties=species:S:1:pos:R:3:forces:R:3 energy=-54479.08542368285 pbc="F F F"
Nd       0.00000000       0.00000000       0.00000000       0.00000000       0.00000000  289141.00000000
Nd       0.00000000       0.00000000       0.57676768       0.00000000       0.00000000 -289141.00000000
2
Properties=species:S:1:pos:R:3:forces:R:3 energy=-37231.378392426515 pbc="F F F"
Nd       0.00000000       0.00000000       0.00000000       0.00000000       0.00000000  281937.62500000
Nd       0.00000000       0.00000000       0.63636364       0.00000000       0.00000000 -281937.62500000
2
Properties=species:S:1:pos:R:3:forces:R:3 energy=-21065.07956429518 pbc="F F F"
Nd       0.00000000       0.00000000       0.00000000       0.00000000       0.00000000  249181.53125000
Nd       0.00000000       0.00000000       0.69595960       0.00000000       0.00000000 -249181.53125000
2
Properties=species:S:1:pos:R:3:forces:R:3 energy=-9106.66061897001 pbc="F F F"
Nd       0.00000000       0.00000000       0.00000000       0.00000000       0.00000000  150705.01562500
Nd       0.00000000       0.00000000       0.75555556       0.00000000       0.00000000 -150705.01562500
2
Properties=species:S:1:pos:R:3:forces:R:3 energy=45.37937432879365 pbc="F F F"
Nd       0.00000000       0.00000000       0.00000000       0.00000000       0.00000000  120866.73437500
Nd       0.00000000       0.00000000       0.81515152       0.00000000       0.00000000 -120866.73437500
2
Properties=species:S:1:pos:R:3:forces:R:3 energy=1771.2816418133586 pbc="F F F"
Nd       0.00000000       0.00000000       0.00000000       0.00000000       0.00000000  -23026.66796875
Nd       0.00000000       0.00000000       0.87474747       0.00000000       0.00000000   23026.66796875
2
Properties=species:S:1:pos:R:3:forces:R:3 energy=144.2444409173026 pbc="F F F"
Nd       0.00000000       0.00000000       0.00000000       0.00000000       0.00000000  -15188.82617188
Nd       0.00000000       0.00000000       0.93434343       0.00000000       0.00000000   15188.82617188
2
Properties=species:S:1:pos:R:3:forces:R:3 energy=-42.808739729760156 pbc="F F F"
Nd       0.00000000       0.00000000       0.00000000       0.00000000       0.00000000     885.51611328
Nd       0.00000000       0.00000000       0.99393939       0.00000000       0.00000000    -885.51611328
2
Properties=species:S:1:pos:R:3:forces:R:3 energy=141.01922130161387 pbc="F F F"
Nd       0.00000000       0.00000000       0.00000000       0.00000000       0.00000000   13339.73535156
Nd       0.00000000       0.00000000       1.05353535       0.00000000       0.00000000  -13339.73535156
2
Properties=species:S:1:pos:R:3:forces:R:3 energy=126.65398700897724 pbc="F F F"
Nd       0.00000000       0.00000000       0.00000000       0.00000000       0.00000000    -654.69067383
Nd       0.00000000       0.00000000       1.11313131       0.00000000       0.00000000     654.69067383
2
Properties=species:S:1:pos:R:3:forces:R:3 energy=95.92528838621445 pbc="F F F"
Nd       0.00000000       0.00000000       0.00000000       0.00000000       0.00000000    -443.72180176
Nd       0.00000000       0.00000000       1.17272727       0.00000000       0.00000000     443.72180176
2
Properties=species:S:1:pos:R:3:forces:R:3 energy=67.81104597188768 pbc="F F F"
Nd       0.00000000       0.00000000       0.00000000       0.00000000       0.00000000    -531.99560547
Nd       0.00000000       0.00000000       1.23232323       0.00000000       0.00000000     531.99560547
2
Properties=species:S:1:pos:R:3:forces:R:3 energy=32.09949067466433 pbc="F F F"
Nd       0.00000000       0.00000000       0.00000000       0.00000000       0.00000000    -644.53302002
Nd       0.00000000       0.00000000       1.29191919       0.00000000       0.00000000     644.53302002
2
Properties=species:S:1:pos:R:3:forces:R:3 energy=-4.654480197105988 pbc="F F F"
Nd       0.00000000       0.00000000       0.00000000       0.00000000       0.00000000    -560.83831787
Nd       0.00000000       0.00000000       1.35151515       0.00000000       0.00000000     560.83831787
2
Properties=species:S:1:pos:R:3:forces:R:3 energy=-34.14914315052739 pbc="F F F"
Nd       0.00000000       0.00000000       0.00000000       0.00000000       0.00000000    -397.54483032
Nd       0.00000000       0.00000000       1.41111111       0.00000000       0.00000000     397.54483032
2
Properties=species:S:1:pos:R:3:forces:R:3 energy=-44.92154651277232 pbc="F F F"
Nd       0.00000000       0.00000000       0.00000000       0.00000000       0.00000000     -67.96400452
Nd       0.00000000       0.00000000       1.47070707       0.00000000       0.00000000      67.96400452
2
Properties=species:S:1:pos:R:3:forces:R:3 energy=-48.990264032155835 pbc="F F F"
Nd       0.00000000       0.00000000       0.00000000       0.00000000       0.00000000     -69.42292786
Nd       0.00000000       0.00000000       1.53030303       0.00000000       0.00000000      69.42292786
2
Properties=species:S:1:pos:R:3:forces:R:3 energy=-52.929209270225385 pbc="F F F"
Nd       0.00000000       0.00000000       0.00000000       0.00000000       0.00000000     -60.78532028
Nd       0.00000000       0.00000000       1.58989899       0.00000000       0.00000000      60.78532028
2
Properties=species:S:1:pos:R:3:forces:R:3 energy=-56.05181299727467 pbc="F F F"
Nd       0.00000000       0.00000000       0.00000000       0.00000000       0.00000000     -43.31488419
Nd       0.00000000       0.00000000       1.64949495       0.00000000       0.00000000      43.31488419
2
Properties=species:S:1:pos:R:3:forces:R:3 energy=-58.12885384713481 pbc="F F F"
Nd       0.00000000       0.00000000       0.00000000       0.00000000       0.00000000     -27.24822617
Nd       0.00000000       0.00000000       1.70909091       0.00000000       0.00000000      27.24822617
2
Properties=species:S:1:pos:R:3:forces:R:3 energy=-59.40679939113089 pbc="F F F"
Nd       0.00000000       0.00000000       0.00000000       0.00000000       0.00000000     -16.51902008
Nd       0.00000000       0.00000000       1.76868687       0.00000000       0.00000000      16.51902008
2
Properties=species:S:1:pos:R:3:forces:R:3 energy=-60.191252631264085 pbc="F F F"
Nd       0.00000000       0.00000000       0.00000000       0.00000000       0.00000000     -10.41979504
Nd       0.00000000       0.00000000       1.82828283       0.00000000       0.00000000      10.41979504
2
Properties=species:S:1:pos:R:3:forces:R:3 energy=-60.70198588105901 pbc="F F F"
Nd       0.00000000       0.00000000       0.00000000       0.00000000       0.00000000      -7.05714083
Nd       0.00000000       0.00000000       1.88787879       0.00000000       0.00000000       7.05714083
2
Properties=species:S:1:pos:R:3:forces:R:3 energy=-61.06619255976517 pbc="F F F"
Nd       0.00000000       0.00000000       0.00000000       0.00000000       0.00000000      -5.40582132
Nd       0.00000000       0.00000000       1.94747475       0.00000000       0.00000000       5.40582132
2
Properties=species:S:1:pos:R:3:forces:R:3 energy=-61.36940196943257 pbc="F F F"
Nd       0.00000000       0.00000000       0.00000000       0.00000000       0.00000000      -4.90722990
Nd       0.00000000       0.00000000       2.00707071       0.00000000       0.00000000       4.90722990
2
Properties=species:S:1:pos:R:3:forces:R:3 energy=-61.65911467606326 pbc="F F F"
Nd       0.00000000       0.00000000       0.00000000       0.00000000       0.00000000      -4.80944777
Nd       0.00000000       0.00000000       2.06666667       0.00000000       0.00000000       4.80944777
2
Properties=species:S:1:pos:R:3:forces:R:3 energy=-61.93524672147136 pbc="F F F"
Nd       0.00000000       0.00000000       0.00000000       0.00000000       0.00000000      -4.36217070
Nd       0.00000000       0.00000000       2.12626263       0.00000000       0.00000000       4.36217070
2
Properties=species:S:1:pos:R:3:forces:R:3 energy=-62.16798238431141 pbc="F F F"
Nd       0.00000000       0.00000000       0.00000000       0.00000000       0.00000000      -3.37443399
Nd       0.00000000       0.00000000       2.18585859       0.00000000       0.00000000       3.37443399
2
Properties=species:S:1:pos:R:3:forces:R:3 energy=-62.33209120618341 pbc="F F F"
Nd       0.00000000       0.00000000       0.00000000       0.00000000       0.00000000      -2.11631775
Nd       0.00000000       0.00000000       2.24545455       0.00000000       0.00000000       2.11631775
2
Properties=species:S:1:pos:R:3:forces:R:3 energy=-62.421057636640334 pbc="F F F"
Nd       0.00000000       0.00000000       0.00000000       0.00000000       0.00000000      -0.89566517
Nd       0.00000000       0.00000000       2.30505051       0.00000000       0.00000000       0.89566517
2
Properties=species:S:1:pos:R:3:forces:R:3 energy=-62.44357912525919 pbc="F F F"
Nd       0.00000000       0.00000000       0.00000000       0.00000000       0.00000000       0.09049098
Nd       0.00000000       0.00000000       2.36464646       0.00000000       0.00000000      -0.09049098
2
Properties=species:S:1:pos:R:3:forces:R:3 energy=-62.41670730546089 pbc="F F F"
Nd       0.00000000       0.00000000       0.00000000       0.00000000       0.00000000       0.75541854
Nd       0.00000000       0.00000000       2.42424242       0.00000000       0.00000000      -0.75541854
2
Properties=species:S:1:pos:R:3:forces:R:3 energy=-62.35998861000675 pbc="F F F"
Nd       0.00000000       0.00000000       0.00000000       0.00000000       0.00000000       1.09753132
Nd       0.00000000       0.00000000       2.48383838       0.00000000       0.00000000      -1.09753132
2
Properties=species:S:1:pos:R:3:forces:R:3 energy=-62.291252873727686 pbc="F F F"
Nd       0.00000000       0.00000000       0.00000000       0.00000000       0.00000000       1.17053914
Nd       0.00000000       0.00000000       2.54343434       0.00000000       0.00000000      -1.17053914
2
Properties=species:S:1:pos:R:3:forces:R:3 energy=-62.224271058717946 pbc="F F F"
Nd       0.00000000       0.00000000       0.00000000       0.00000000       0.00000000       1.05194199
Nd       0.00000000       0.00000000       2.60303030       0.00000000       0.00000000      -1.05194199
2
Properties=species:S:1:pos:R:3:forces:R:3 energy=-62.168221241067414 pbc="F F F"
Nd       0.00000000       0.00000000       0.00000000       0.00000000       0.00000000       0.81447297
Nd       0.00000000       0.00000000       2.66262626       0.00000000       0.00000000      -0.81447297
2
Properties=species:S:1:pos:R:3:forces:R:3 energy=-62.12845152814002 pbc="F F F"
Nd       0.00000000       0.00000000       0.00000000       0.00000000       0.00000000       0.51321226
Nd       0.00000000       0.00000000       2.72222222       0.00000000       0.00000000      -0.51321226
2
Properties=species:S:1:pos:R:3:forces:R:3 energy=-62.1074718988697 pbc="F F F"
Nd       0.00000000       0.00000000       0.00000000       0.00000000       0.00000000       0.19055428
Nd       0.00000000       0.00000000       2.78181818       0.00000000       0.00000000      -0.19055428
2
Properties=species:S:1:pos:R:3:forces:R:3 energy=-62.10539285276427 pbc="F F F"
Nd       0.00000000       0.00000000       0.00000000       0.00000000       0.00000000      -0.11464807
Nd       0.00000000       0.00000000       2.84141414       0.00000000       0.00000000       0.11464807
2
Properties=species:S:1:pos:R:3:forces:R:3 energy=-62.12005897182705 pbc="F F F"
Nd       0.00000000       0.00000000       0.00000000       0.00000000       0.00000000      -0.36574185
Nd       0.00000000       0.00000000       2.90101010       0.00000000       0.00000000       0.36574185
2
Properties=species:S:1:pos:R:3:forces:R:3 energy=-62.14732736811469 pbc="F F F"
Nd       0.00000000       0.00000000       0.00000000       0.00000000       0.00000000      -0.53376549
Nd       0.00000000       0.00000000       2.96060606       0.00000000       0.00000000       0.53376549
2
Properties=species:S:1:pos:R:3:forces:R:3 energy=-62.18170092348325 pbc="F F F"
Nd       0.00000000       0.00000000       0.00000000       0.00000000       0.00000000      -0.60276246
Nd       0.00000000       0.00000000       3.02020202       0.00000000       0.00000000       0.60276246
2
Properties=species:S:1:pos:R:3:forces:R:3 energy=-62.21717896707844 pbc="F F F"
Nd       0.00000000       0.00000000       0.00000000       0.00000000       0.00000000      -0.57193816
Nd       0.00000000       0.00000000       3.07979798       0.00000000       0.00000000       0.57193816
2
Properties=species:S:1:pos:R:3:forces:R:3 energy=-62.248149923999236 pbc="F F F"
Nd       0.00000000       0.00000000       0.00000000       0.00000000       0.00000000      -0.45484456
Nd       0.00000000       0.00000000       3.13939394       0.00000000       0.00000000       0.45484456
2
Properties=species:S:1:pos:R:3:forces:R:3 energy=-62.2701542515832 pbc="F F F"
Nd       0.00000000       0.00000000       0.00000000       0.00000000       0.00000000      -0.27571526
Nd       0.00000000       0.00000000       3.19898990       0.00000000       0.00000000       0.27571526
2
Properties=species:S:1:pos:R:3:forces:R:3 energy=-62.28034599243301 pbc="F F F"
Nd       0.00000000       0.00000000       0.00000000       0.00000000       0.00000000      -0.06291889
Nd       0.00000000       0.00000000       3.25858586       0.00000000       0.00000000       0.06291889
2
Properties=species:S:1:pos:R:3:forces:R:3 energy=-62.27749281876603 pbc="F F F"
Nd       0.00000000       0.00000000       0.00000000       0.00000000       0.00000000       0.15844117
Nd       0.00000000       0.00000000       3.31818182       0.00000000       0.00000000      -0.15844117
2
Properties=species:S:1:pos:R:3:forces:R:3 energy=-62.261617397018284 pbc="F F F"
Nd       0.00000000       0.00000000       0.00000000       0.00000000       0.00000000       0.37231186
Nd       0.00000000       0.00000000       3.37777778       0.00000000       0.00000000      -0.37231186
2
Properties=species:S:1:pos:R:3:forces:R:3 energy=-62.23335275785961 pbc="F F F"
Nd       0.00000000       0.00000000       0.00000000       0.00000000       0.00000000       0.57457852
Nd       0.00000000       0.00000000       3.43737374       0.00000000       0.00000000      -0.57457852
2
Properties=species:S:1:pos:R:3:forces:R:3 energy=-62.19323273082401 pbc="F F F"
Nd       0.00000000       0.00000000       0.00000000       0.00000000       0.00000000       0.77204782
Nd       0.00000000       0.00000000       3.49696970       0.00000000       0.00000000      -0.77204782
2
Properties=species:S:1:pos:R:3:forces:R:3 energy=-62.141184557895066 pbc="F F F"
Nd       0.00000000       0.00000000       0.00000000       0.00000000       0.00000000       0.97670674
Nd       0.00000000       0.00000000       3.55656566       0.00000000       0.00000000      -0.97670674
2
Properties=species:S:1:pos:R:3:forces:R:3 energy=-62.07652134647486 pbc="F F F"
Nd       0.00000000       0.00000000       0.00000000       0.00000000       0.00000000       1.19578838
Nd       0.00000000       0.00000000       3.61616162       0.00000000       0.00000000      -1.19578838
2
Properties=species:S:1:pos:R:3:forces:R:3 energy=-61.99850276018986 pbc="F F F"
Nd       0.00000000       0.00000000       0.00000000       0.00000000       0.00000000       1.42207837
Nd       0.00000000       0.00000000       3.67575758       0.00000000       0.00000000      -1.42207837
2
Properties=species:S:1:pos:R:3:forces:R:3 energy=-61.907345948512386 pbc="F F F"
Nd       0.00000000       0.00000000       0.00000000       0.00000000       0.00000000       1.63166869
Nd       0.00000000       0.00000000       3.73535354       0.00000000       0.00000000      -1.63166869
2
Properties=species:S:1:pos:R:3:forces:R:3 energy=-61.80499611244045 pbc="F F F"
Nd       0.00000000       0.00000000       0.00000000       0.00000000       0.00000000       1.79242504
Nd       0.00000000       0.00000000       3.79494949       0.00000000       0.00000000      -1.79242504
2
Properties=species:S:1:pos:R:3:forces:R:3 energy=-61.69520658779775 pbc="F F F"
Nd       0.00000000       0.00000000       0.00000000       0.00000000       0.00000000       1.87806964
Nd       0.00000000       0.00000000       3.85454545       0.00000000       0.00000000      -1.87806964
2
Properties=species:S:1:pos:R:3:forces:R:3 energy=-61.582852244075355 pbc="F F F"
Nd       0.00000000       0.00000000       0.00000000       0.00000000       0.00000000       1.87843084
Nd       0.00000000       0.00000000       3.91414141       0.00000000       0.00000000      -1.87843084
2
Properties=species:S:1:pos:R:3:forces:R:3 energy=-61.472872778443104 pbc="F F F"
Nd       0.00000000       0.00000000       0.00000000       0.00000000       0.00000000       1.80056429
Nd       0.00000000       0.00000000       3.97373737       0.00000000       0.00000000      -1.80056429
2
Properties=species:S:1:pos:R:3:forces:R:3 energy=-61.36942583078188 pbc="F F F"
Nd       0.00000000       0.00000000       0.00000000       0.00000000       0.00000000       1.66293609
Nd       0.00000000       0.00000000       4.03333333       0.00000000       0.00000000      -1.66293609
2
Properties=species:S:1:pos:R:3:forces:R:3 energy=-61.27540640152019 pbc="F F F"
Nd       0.00000000       0.00000000       0.00000000       0.00000000       0.00000000       1.48799980
Nd       0.00000000       0.00000000       4.09292929       0.00000000       0.00000000      -1.48799980
2
Properties=species:S:1:pos:R:3:forces:R:3 energy=-61.19238574361809 pbc="F F F"
Nd       0.00000000       0.00000000       0.00000000       0.00000000       0.00000000       1.29691315
Nd       0.00000000       0.00000000       4.15252525       0.00000000       0.00000000      -1.29691315
2
Properties=species:S:1:pos:R:3:forces:R:3 energy=-61.12079833975388 pbc="F F F"
Nd       0.00000000       0.00000000       0.00000000       0.00000000       0.00000000       1.10696328
Nd       0.00000000       0.00000000       4.21212121       0.00000000       0.00000000      -1.10696328
2
Properties=species:S:1:pos:R:3:forces:R:3 energy=-61.060166934616866 pbc="F F F"
Nd       0.00000000       0.00000000       0.00000000       0.00000000       0.00000000       0.93096328
Nd       0.00000000       0.00000000       4.27171717       0.00000000       0.00000000      -0.93096328
2
Properties=species:S:1:pos:R:3:forces:R:3 energy=-61.009381033150206 pbc="F F F"
Nd       0.00000000       0.00000000       0.00000000       0.00000000       0.00000000       0.77767748
Nd       0.00000000       0.00000000       4.33131313       0.00000000       0.00000000      -0.77767748
2
Properties=species:S:1:pos:R:3:forces:R:3 energy=-60.966914309784734 pbc="F F F"
Nd       0.00000000       0.00000000       0.00000000       0.00000000       0.00000000       0.65254772
Nd       0.00000000       0.00000000       4.39090909       0.00000000       0.00000000      -0.65254772
2
Properties=species:S:1:pos:R:3:forces:R:3 energy=-60.93098486373794 pbc="F F F"
Nd       0.00000000       0.00000000       0.00000000       0.00000000       0.00000000       0.55849051
Nd       0.00000000       0.00000000       4.45050505       0.00000000       0.00000000      -0.55849051
2
Properties=species:S:1:pos:R:3:forces:R:3 energy=-60.89970777839423 pbc="F F F"
Nd       0.00000000       0.00000000       0.00000000       0.00000000       0.00000000       0.49642813
Nd       0.00000000       0.00000000       4.51010101       0.00000000       0.00000000      -0.49642813
2
Properties=species:S:1:pos:R:3:forces:R:3 energy=-60.871194319272895 pbc="F F F"
Nd       0.00000000       0.00000000       0.00000000       0.00000000       0.00000000       0.46544564
Nd       0.00000000       0.00000000       4.56969697       0.00000000       0.00000000      -0.46544564
2
Properties=species:S:1:pos:R:3:forces:R:3 energy=-60.84367018647558 pbc="F F F"
Nd       0.00000000       0.00000000       0.00000000       0.00000000       0.00000000       0.46263963
Nd       0.00000000       0.00000000       4.62929293       0.00000000       0.00000000      -0.46263963
2
Properties=species:S:1:pos:R:3:forces:R:3 energy=-60.81559378297273 pbc="F F F"
Nd       0.00000000       0.00000000       0.00000000       0.00000000       0.00000000       0.48292178
Nd       0.00000000       0.00000000       4.68888889       0.00000000       0.00000000      -0.48292178
2
Properties=species:S:1:pos:R:3:forces:R:3 energy=-60.78578971316889 pbc="F F F"
Nd       0.00000000       0.00000000       0.00000000       0.00000000       0.00000000       0.51919621
Nd       0.00000000       0.00000000       4.74848485       0.00000000       0.00000000      -0.51919621
2
Properties=species:S:1:pos:R:3:forces:R:3 energy=-60.753559428130224 pbc="F F F"
Nd       0.00000000       0.00000000       0.00000000       0.00000000       0.00000000       0.56304199
Nd       0.00000000       0.00000000       4.80808081       0.00000000       0.00000000      -0.56304199
2
Properties=species:S:1:pos:R:3:forces:R:3 energy=-60.71870028956744 pbc="F F F"
Nd       0.00000000       0.00000000       0.00000000       0.00000000       0.00000000       0.60584909
Nd       0.00000000       0.00000000       4.86767677       0.00000000       0.00000000      -0.60584909
2
Properties=species:S:1:pos:R:3:forces:R:3 energy=-60.68151703293451 pbc="F F F"
Nd       0.00000000       0.00000000       0.00000000       0.00000000       0.00000000       0.63996607
Nd       0.00000000       0.00000000       4.92727273       0.00000000       0.00000000      -0.63996607
2
Properties=species:S:1:pos:R:3:forces:R:3 energy=-60.642711131704495 pbc="F F F"
Nd       0.00000000       0.00000000       0.00000000       0.00000000       0.00000000       0.65960956
Nd       0.00000000       0.00000000       4.98686869       0.00000000       0.00000000      -0.65960956
2
Properties=species:S:1:pos:R:3:forces:R:3 energy=-60.6032587333927 pbc="F F F"
Nd       0.00000000       0.00000000       0.00000000       0.00000000       0.00000000       0.66144902
Nd       0.00000000       0.00000000       5.04646465       0.00000000       0.00000000      -0.66144902
2
Properties=species:S:1:pos:R:3:forces:R:3 energy=-60.56424281287697 pbc="F F F"
Nd       0.00000000       0.00000000       0.00000000       0.00000000       0.00000000       0.64498615
Nd       0.00000000       0.00000000       5.10606061       0.00000000       0.00000000      -0.64498615
2
Properties=species:S:1:pos:R:3:forces:R:3 energy=-60.52668916892567 pbc="F F F"
Nd       0.00000000       0.00000000       0.00000000       0.00000000       0.00000000       0.61285466
Nd       0.00000000       0.00000000       5.16565657       0.00000000       0.00000000      -0.61285466
2
Properties=species:S:1:pos:R:3:forces:R:3 energy=-60.49139091644527 pbc="F F F"
Nd       0.00000000       0.00000000       0.00000000       0.00000000       0.00000000       0.57069010
Nd       0.00000000       0.00000000       5.22525253       0.00000000       0.00000000      -0.57069010
2
Properties=species:S:1:pos:R:3:forces:R:3 energy=-60.458721594824695 pbc="F F F"
Nd       0.00000000       0.00000000       0.00000000       0.00000000       0.00000000       0.52585429
Nd       0.00000000       0.00000000       5.28484848       0.00000000       0.00000000      -0.52585429
2
Properties=species:S:1:pos:R:3:forces:R:3 energy=-60.42863517427098 pbc="F F F"
Nd       0.00000000       0.00000000       0.00000000       0.00000000       0.00000000       0.48470932
Nd       0.00000000       0.00000000       5.34444444       0.00000000       0.00000000      -0.48470932
2
Properties=species:S:1:pos:R:3:forces:R:3 energy=-60.400860589530716 pbc="F F F"
Nd       0.00000000       0.00000000       0.00000000       0.00000000       0.00000000       0.44740513
Nd       0.00000000       0.00000000       5.40404040       0.00000000       0.00000000      -0.44740513
2
Properties=species:S:1:pos:R:3:forces:R:3 energy=-60.37544346174781 pbc="F F F"
Nd       0.00000000       0.00000000       0.00000000       0.00000000       0.00000000       0.40324059
Nd       0.00000000       0.00000000       5.46363636       0.00000000       0.00000000      -0.40324059
2
Properties=species:S:1:pos:R:3:forces:R:3 energy=-60.353005469367126 pbc="F F F"
Nd       0.00000000       0.00000000       0.00000000       0.00000000       0.00000000       0.34982294
Nd       0.00000000       0.00000000       5.52323232       0.00000000       0.00000000      -0.34982294
2
Properties=species:S:1:pos:R:3:forces:R:3 energy=-60.333683906644204 pbc="F F F"
Nd       0.00000000       0.00000000       0.00000000       0.00000000       0.00000000       0.29879352
Nd       0.00000000       0.00000000       5.58282828       0.00000000       0.00000000      -0.29879352
2
Properties=species:S:1:pos:R:3:forces:R:3 energy=-60.31747496204959 pbc="F F F"
Nd       0.00000000       0.00000000       0.00000000       0.00000000       0.00000000       0.24405158
Nd       0.00000000       0.00000000       5.64242424       0.00000000       0.00000000      -0.24405158
2
Properties=species:S:1:pos:R:3:forces:R:3 energy=-60.30466864127448 pbc="F F F"
Nd       0.00000000       0.00000000       0.00000000       0.00000000       0.00000000       0.18643129
Nd       0.00000000       0.00000000       5.70202020       0.00000000       0.00000000      -0.18643129
2
Properties=species:S:1:pos:R:3:forces:R:3 energy=-60.29478827505527 pbc="F F F"
Nd       0.00000000       0.00000000       0.00000000       0.00000000       0.00000000       0.15239781
Nd       0.00000000       0.00000000       5.76161616       0.00000000       0.00000000      -0.15239781
2
Properties=species:S:1:pos:R:3:forces:R:3 energy=-60.285793225270204 pbc="F F F"
Nd       0.00000000       0.00000000       0.00000000       0.00000000       0.00000000       0.14992253
Nd       0.00000000       0.00000000       5.82121212       0.00000000       0.00000000      -0.14992253
2
Properties=species:S:1:pos:R:3:forces:R:3 energy=-60.27770288535565 pbc="F F F"
Nd       0.00000000       0.00000000       0.00000000       0.00000000       0.00000000       0.11258265
Nd       0.00000000       0.00000000       5.88080808       0.00000000       0.00000000      -0.11258265
2
Properties=species:S:1:pos:R:3:forces:R:3 energy=-60.273081121516235 pbc="F F F"
Nd       0.00000000       0.00000000       0.00000000       0.00000000       0.00000000       0.04143728
Nd       0.00000000       0.00000000       5.94040404       0.00000000       0.00000000      -0.04143728
2
Properties=species:S:1:pos:R:3:forces:R:3 energy=-60.27193603198417 pbc="F F F"
Nd       0.00000000       0.00000000       0.00000000       0.00000000       0.00000000       0.00812506
Nd       0.00000000       0.00000000       6.00000000       0.00000000       0.00000000      -0.00812506
