2
Properties=species:S:1:pos:R:3:forces:R:3 energy=3017.2301599025973 pbc="F F F"
Ne       0.00000000       0.00000000       0.00000000       0.00000000       0.00000000  -60786.82812500
Ne       0.00000000       0.00000000       0.10000000       0.00000000       0.00000000   60786.82812500
2
Properties=species:S:1:pos:R:3:forces:R:3 energy=1076.1255456447848 pbc="F F F"
Ne       0.00000000       0.00000000       0.00000000       0.00000000       0.00000000  -16268.28710938
Ne       0.00000000       0.00000000       0.15959596       0.00000000       0.00000000   16268.28710938
2
Properties=species:S:1:pos:R:3:forces:R:3 energy=475.6601830959567 pbc="F F F"
Ne       0.00000000       0.00000000       0.00000000       0.00000000       0.00000000   -5954.05712891
Ne       0.00000000       0.00000000       0.21919192       0.00000000       0.00000000    5954.05712891
2
Properties=species:S:1:pos:R:3:forces:R:3 energy=237.0885125638291 pbc="F F F"
Ne       0.00000000       0.00000000       0.00000000       0.00000000       0.00000000   -2603.66406250
Ne       0.00000000       0.00000000       0.27878788       0.00000000       0.00000000    2603.66406250
2
Properties=species:S:1:pos:R:3:forces:R:3 energy=126.81823363336305 pbc="F F F"
Ne       0.00000000       0.00000000       0.00000000       0.00000000       0.00000000   -1281.89355469
Ne       0.00000000       0.00000000       0.33838384       0.00000000       0.00000000    1281.89355469
2
Properties=species:S:1:pos:R:3:forces:R:3 energy=70.38258757672911 pbc="F F F"
Ne       0.00000000       0.00000000       0.00000000       0.00000000       0.00000000    -684.55041504
Ne       0.00000000       0.00000000       0.39797980       0.00000000       0.00000000     684.55041504
2
Properties=species:S:1:pos:R:3:forces:R:3 energy=39.43575682830633 pbc="F F F"
Ne       0.00000000       0.00000000       0.00000000       0.00000000       0.00000000    -386.15832520
Ne       0.00000000       0.00000000       0.45757576       0.00000000       0.00000000     386.15832520
2
Properties=species:S:1:pos:R:3:forces:R:3 energy=21.663156656336024 pbc="F F F"
Ne       0.00000000       0.00000000       0.00000000       0.00000000       0.00000000    -225.97717285
Ne       0.00000000       0.00000000       0.51717172       0.00000000       0.00000000     225.97717285
2
Properties=species:S:1:pos:R:3:forces:R:3 energy=11.150084645945851 pbc="F F F"
Ne       0.00000000       0.00000000       0.00000000       0.00000000       0.00000000    -134.96246338
Ne       0.00000000       0.00000000       0.57676768       0.00000000       0.00000000     134.96246338
2
Properties=species:S:1:pos:R:3:forces:R:3 energy=4.84536949552833 pbc="F F F"
Ne       0.00000000       0.00000000       0.00000000       0.00000000       0.00000000     -81.23040009
Ne       0.00000000       0.00000000       0.63636364       0.00000000       0.00000000      81.23040009
2
Properties=species:S:1:pos:R:3:forces:R:3 energy=1.049233364109438 pbc="F F F"
Ne       0.00000000       0.00000000       0.00000000       0.00000000       0.00000000     -48.79596710
Ne       0.00000000       0.00000000       0.69595960       0.00000000       0.00000000      48.79596710
2
Properties=species:S:1:pos:R:3:forces:R:3 energy=-1.2148435694052782 pbc="F F F"
Ne       0.00000000       0.00000000       0.00000000       0.00000000       0.00000000     -28.79415894
Ne       0.00000000       0.00000000       0.75555556       0.00000000       0.00000000      28.79415894
2
Properties=species:S:1:pos:R:3:forces:R:3 energy=-2.535499131961828 pbc="F F F"
Ne       0.00000000       0.00000000       0.00000000       0.00000000       0.00000000     -16.52799225
Ne       0.00000000       0.00000000       0.81515152       0.00000000       0.00000000      16.52799225
2
Properties=species:S:1:pos:R:3:forces:R:3 energy=-3.279227499857323 pbc="F F F"
Ne       0.00000000       0.00000000       0.00000000       0.00000000       0.00000000      -9.05261135
Ne       0.00000000       0.00000000       0.87474747       0.00000000       0.00000000       9.05261135
2
Properties=species:S:1:pos:R:3:forces:R:3 energy=-3.673780878732653 pbc="F F F"
Ne       0.00000000       0.00000000       0.00000000       0.00000000       0.00000000      -4.58370113
Ne       0.00000000       0.00000000       0.93434343       0.00000000       0.00000000       4.58370113
2
Properties=species:S:1:pos:R:3:forces:R:3 energy=-3.863440413340573 pbc="F F F"
Ne       0.00000000       0.00000000       0.00000000       0.00000000       0.00000000      -2.03306103
Ne       0.00000000       0.00000000       0.99393939       0.00000000       0.00000000       2.03306103
2
Properties=species:S:1:pos:R:3:forces:R:3 energy=-3.9399846160947374 pbc="F F F"
Ne       0.00000000       0.00000000       0.00000000       0.00000000       0.00000000      -0.69302058
Ne       0.00000000       0.00000000       1.05353535       0.00000000       0.00000000       0.69302058
2
Properties=species:S:1:pos:R:3:forces:R:3 energy=-3.9608697360145855 pbc="F F F"
Ne       0.00000000       0.00000000       0.00000000       0.00000000       0.00000000      -0.10497016
Ne       0.00000000       0.00000000       1.11313131       0.00000000       0.00000000       0.10497016
2
Properties=species:S:1:pos:R:3:forces:R:3 energy=-3.961584133548178 pbc="F F F"
Ne       0.00000000       0.00000000       0.00000000       0.00000000       0.00000000       0.02795069
Ne       0.00000000       0.00000000       1.17272727       0.00000000       0.00000000      -0.02795069
2
Properties=species:S:1:pos:R:3:forces:R:3 energy=-3.9589417941309457 pbc="F F F"
Ne       0.00000000       0.00000000       0.00000000       0.00000000       0.00000000       0.06272300
Ne       0.00000000       0.00000000       1.23232323       0.00000000       0.00000000      -0.06272300
2
Properties=species:S:1:pos:R:3:forces:R:3 energy=-3.9539545572041006 pbc="F F F"
Ne       0.00000000       0.00000000       0.00000000       0.00000000       0.00000000       0.10521453
Ne       0.00000000       0.00000000       1.29191919       0.00000000       0.00000000      -0.10521453
2
Properties=species:S:1:pos:R:3:forces:R:3 energy=-3.9464145110752664 pbc="F F F"
Ne       0.00000000       0.00000000       0.00000000       0.00000000       0.00000000       0.14708003
Ne       0.00000000       0.00000000       1.35151515       0.00000000       0.00000000      -0.14708003
2
Properties=species:S:1:pos:R:3:forces:R:3 energy=-3.9365748436041605 pbc="F F F"
Ne       0.00000000       0.00000000       0.00000000       0.00000000       0.00000000       0.18142675
Ne       0.00000000       0.00000000       1.41111111       0.00000000       0.00000000      -0.18142675
2
Properties=species:S:1:pos:R:3:forces:R:3 energy=-3.9250220506361506 pbc="F F F"
Ne       0.00000000       0.00000000       0.00000000       0.00000000       0.00000000       0.20420769
Ne       0.00000000       0.00000000       1.47070707       0.00000000       0.00000000      -0.20420769
2
Properties=species:S:1:pos:R:3:forces:R:3 energy=-3.9124761403420187 pbc="F F F"
Ne       0.00000000       0.00000000       0.00000000       0.00000000       0.00000000       0.21494031
Ne       0.00000000       0.00000000       1.53030303       0.00000000       0.00000000      -0.21494031
2
Properties=species:S:1:pos:R:3:forces:R:3 energy=-3.899603713051944 pbc="F F F"
Ne       0.00000000       0.00000000       0.00000000       0.00000000       0.00000000       0.21559422
Ne       0.00000000       0.00000000       1.58989899       0.00000000       0.00000000      -0.21559422
2
Properties=species:S:1:pos:R:3:forces:R:3 energy=-3.886925216032256 pbc="F F F"
Ne       0.00000000       0.00000000       0.00000000       0.00000000       0.00000000       0.20887707
Ne       0.00000000       0.00000000       1.64949495       0.00000000       0.00000000      -0.20887707
2
Properties=species:S:1:pos:R:3:forces:R:3 energy=-3.8748042153423348 pbc="F F F"
Ne       0.00000000       0.00000000       0.00000000       0.00000000       0.00000000       0.19725911
Ne       0.00000000       0.00000000       1.70909091       0.00000000       0.00000000      -0.19725911
2
Properties=species:S:1:pos:R:3:forces:R:3 energy=-3.863471474725179 pbc="F F F"
Ne       0.00000000       0.00000000       0.00000000       0.00000000       0.00000000       0.18270819
Ne       0.00000000       0.00000000       1.76868687       0.00000000       0.00000000      -0.18270819
2
Properties=species:S:1:pos:R:3:forces:R:3 energy=-3.8530547591177267 pbc="F F F"
Ne       0.00000000       0.00000000       0.00000000       0.00000000       0.00000000       0.16674292
Ne       0.00000000       0.00000000       1.82828283       0.00000000       0.00000000      -0.16674292
2
Properties=species:S:1:pos:R:3:forces:R:3 energy=-3.8436017216465155 pbc="F F F"
Ne       0.00000000       0.00000000       0.00000000       0.00000000       0.00000000       0.15053621
Ne       0.00000000       0.00000000       1.88787879       0.00000000       0.00000000      -0.15053621
2
Properties=species:S:1:pos:R:3:forces:R:3 energy=-3.8350996930627095 pbc="F F F"
Ne       0.00000000       0.00000000       0.00000000       0.00000000       0.00000000       0.13493791
Ne       0.00000000       0.00000000       1.94747475       0.00000000       0.00000000      -0.13493791
2
Properties=species:S:1:pos:R:3:forces:R:3 energy=-3.82749570860576 pbc="F F F"
Ne       0.00000000       0.00000000       0.00000000       0.00000000       0.00000000       0.12045626
Ne       0.00000000       0.00000000       2.00707071       0.00000000       0.00000000      -0.12045626
2
Properties=species:S:1:pos:R:3:forces:R:3 energy=-3.8207160580299093 pbc="F F F"
Ne       0.00000000       0.00000000       0.00000000       0.00000000       0.00000000       0.10729221
Ne       0.00000000       0.00000000       2.06666667       0.00000000       0.00000000      -0.10729221
2
Properties=species:S:1:pos:R:3:forces:R:3 energy=-3.814681068051066 pbc="F F F"
Ne       0.00000000       0.00000000       0.00000000       0.00000000       0.00000000       0.09545092
Ne       0.00000000       0.00000000       2.12626263       0.00000000       0.00000000      -0.09545092
2
Properties=species:S:1:pos:R:3:forces:R:3 energy=-3.809314161955828 pbc="F F F"
Ne       0.00000000       0.00000000       0.00000000       0.00000000       0.00000000       0.08486012
Ne       0.00000000       0.00000000       2.18585859       0.00000000       0.00000000      -0.08486012
2
Properties=species:S:1:pos:R:3:forces:R:3 energy=-3.804543291003908 pbc="F F F"
Ne       0.00000000       0.00000000       0.00000000       0.00000000       0.00000000       0.07543757
Ne       0.00000000       0.00000000       2.24545455       0.00000000       0.00000000      -0.07543757
2
Properties=species:S:1:pos:R:3:forces:R:3 energy=-3.8003009334381876 pbc="F F F"
Ne       0.00000000       0.00000000       0.00000000       0.00000000       0.00000000       0.06710491
Ne       0.00000000       0.00000000       2.30505051       0.00000000       0.00000000      -0.06710491
2
Properties=species:S:1:pos:R:3:forces:R:3 energy=-3.796524811720346 pbc="F F F"
Ne       0.00000000       0.00000000       0.00000000       0.00000000       0.00000000       0.05978109
Ne       0.00000000       0.00000000       2.36464646       0.00000000       0.00000000      -0.05978109
2
Properties=species:S:1:pos:R:3:forces:R:3 energy=-3.7931571762851735 pbc="F F F"
Ne       0.00000000       0.00000000       0.00000000       0.00000000       0.00000000       0.05337616
Ne       0.00000000       0.00000000       2.42424242       0.00000000       0.00000000      -0.05337616
2
Properties=species:S:1:pos:R:3:forces:R:3 energy=-3.790146475757559 pbc="F F F"
Ne       0.00000000       0.00000000       0.00000000       0.00000000       0.00000000       0.04779143
Ne       0.00000000       0.00000000       2.48383838       0.00000000       0.00000000      -0.04779143
2
Properties=species:S:1:pos:R:3:forces:R:3 energy=-3.7874466420927253 pbc="F F F"
Ne       0.00000000       0.00000000       0.00000000       0.00000000       0.00000000       0.04292509
Ne       0.00000000       0.00000000       2.54343434       0.00000000       0.00000000      -0.04292509
2
Properties=species:S:1:pos:R:3:forces:R:3 energy=-3.785017807019903 pbc="F F F"
Ne       0.00000000       0.00000000       0.00000000       0.00000000       0.00000000       0.03868004
Ne       0.00000000       0.00000000       2.60303030       0.00000000       0.00000000      -0.03868004
2
Properties=species:S:1:pos:R:3:forces:R:3 energy=-3.7828258255021536 pbc="F F F"
Ne       0.00000000       0.00000000       0.00000000       0.00000000       0.00000000       0.03496855
Ne       0.00000000       0.00000000       2.66262626       0.00000000       0.00000000      -0.03496855
2
Properties=species:S:1:pos:R:3:forces:R:3 energy=-3.7808408467098134 pbc="F F F"
Ne       0.00000000       0.00000000       0.00000000       0.00000000       0.00000000       0.03171510
Ne       0.00000000       0.00000000       2.72222222       0.00000000       0.00000000      -0.03171510
2
Properties=species:S:1:pos:R:3:forces:R:3 energy=-3.7790377918475935 pbc="F F F"
Ne       0.00000000       0.00000000       0.00000000       0.00000000       0.00000000       0.02885692
Ne       0.00000000       0.00000000       2.78181818       0.00000000       0.00000000      -0.02885692
2
Properties=species:S:1:pos:R:3:forces:R:3 energy=-3.7773944476969 pbc="F F F"
Ne       0.00000000       0.00000000       0.00000000       0.00000000       0.00000000       0.02634257
Ne       0.00000000       0.00000000       2.84141414       0.00000000       0.00000000      -0.02634257
2
Properties=species:S:1:pos:R:3:forces:R:3 energy=-3.7758919453338846 pbc="F F F"
Ne       0.00000000       0.00000000       0.00000000       0.00000000       0.00000000       0.02413052
Ne       0.00000000       0.00000000       2.90101010       0.00000000       0.00000000      -0.02413052
2
Properties=species:S:1:pos:R:3:forces:R:3 energy=-3.774513091892353 pbc="F F F"
Ne       0.00000000       0.00000000       0.00000000       0.00000000       0.00000000       0.02218606
Ne       0.00000000       0.00000000       2.96060606       0.00000000       0.00000000      -0.02218606
2
Properties=species:S:1:pos:R:3:forces:R:3 energy=-3.773242849281816 pbc="F F F"
Ne       0.00000000       0.00000000       0.00000000       0.00000000       0.00000000       0.02047983
Ne       0.00000000       0.00000000       3.02020202       0.00000000       0.00000000      -0.02047983
2
Properties=species:S:1:pos:R:3:forces:R:3 energy=-3.7720676194267266 pbc="F F F"
Ne       0.00000000       0.00000000       0.00000000       0.00000000       0.00000000       0.01898597
Ne       0.00000000       0.00000000       3.07979798       0.00000000       0.00000000      -0.01898597
2
Properties=species:S:1:pos:R:3:forces:R:3 energy=-3.7709759617000937 pbc="F F F"
Ne       0.00000000       0.00000000       0.00000000       0.00000000       0.00000000       0.01768108
Ne       0.00000000       0.00000000       3.13939394       0.00000000       0.00000000      -0.01768108
2
Properties=species:S:1:pos:R:3:forces:R:3 energy=-3.769956923696444 pbc="F F F"
Ne       0.00000000       0.00000000       0.00000000       0.00000000       0.00000000       0.01654370
Ne       0.00000000       0.00000000       3.19898990       0.00000000       0.00000000      -0.01654370
2
Properties=species:S:1:pos:R:3:forces:R:3 energy=-3.7690012354036035 pbc="F F F"
Ne       0.00000000       0.00000000       0.00000000       0.00000000       0.00000000       0.01555422
Ne       0.00000000       0.00000000       3.25858586       0.00000000       0.00000000      -0.01555422
2
Properties=species:S:1:pos:R:3:forces:R:3 energy=-3.7681003551324017 pbc="F F F"
Ne       0.00000000       0.00000000       0.00000000       0.00000000       0.00000000       0.01469505
Ne       0.00000000       0.00000000       3.31818182       0.00000000       0.00000000      -0.01469505
2
Properties=species:S:1:pos:R:3:forces:R:3 energy=-3.7672474237354563 pbc="F F F"
Ne       0.00000000       0.00000000       0.00000000       0.00000000       0.00000000       0.01395148
Ne       0.00000000       0.00000000       3.37777778       0.00000000       0.00000000      -0.01395148
2
Properties=species:S:1:pos:R:3:forces:R:3 energy=-3.7664355955781286 pbc="F F F"
Ne       0.00000000       0.00000000       0.00000000       0.00000000       0.00000000       0.01331211
Ne       0.00000000       0.00000000       3.43737374       0.00000000       0.00000000      -0.01331211
2
Properties=species:S:1:pos:R:3:forces:R:3 energy=-3.7656587525568255 pbc="F F F"
Ne       0.00000000       0.00000000       0.00000000       0.00000000       0.00000000       0.01276994
Ne       0.00000000       0.00000000       3.49696970       0.00000000       0.00000000      -0.01276994
2
Properties=species:S:1:pos:R:3:forces:R:3 energy=-3.764911503950512 pbc="F F F"
Ne       0.00000000       0.00000000       0.00000000       0.00000000       0.00000000       0.01232249
Ne       0.00000000       0.00000000       3.55656566       0.00000000       0.00000000      -0.01232249
2
Properties=species:S:1:pos:R:3:forces:R:3 energy=-3.7641882310634878 pbc="F F F"
Ne       0.00000000       0.00000000       0.00000000       0.00000000       0.00000000       0.01197154
Ne       0.00000000       0.00000000       3.61616162       0.00000000       0.00000000      -0.01197154
2
Properties=species:S:1:pos:R:3:forces:R:3 energy=-3.763482607764875 pbc="F F F"
Ne       0.00000000       0.00000000       0.00000000       0.00000000       0.00000000       0.01172169
Ne       0.00000000       0.00000000       3.67575758       0.00000000       0.00000000      -0.01172169
2
Properties=species:S:1:pos:R:3:forces:R:3 energy=-3.762788791591572 pbc="F F F"
Ne       0.00000000       0.00000000       0.00000000       0.00000000       0.00000000       0.01157716
Ne       0.00000000       0.00000000       3.73535354       0.00000000       0.00000000      -0.01157716
2
Properties=species:S:1:pos:R:3:forces:R:3 energy=-3.7621007051267012 pbc="F F F"
Ne       0.00000000       0.00000000       0.00000000       0.00000000       0.00000000       0.01153786
Ne       0.00000000       0.00000000       3.79494949       0.00000000       0.00000000      -0.01153786
2
Properties=species:S:1:pos:R:3:forces:R:3 energy=-3.761411796343604 pbc="F F F"
Ne       0.00000000       0.00000000       0.00000000       0.00000000       0.00000000       0.01159511
Ne       0.00000000       0.00000000       3.85454545       0.00000000       0.00000000      -0.01159511
2
Properties=species:S:1:pos:R:3:forces:R:3 energy=-3.7607171803142774 pbc="F F F"
Ne       0.00000000       0.00000000       0.00000000       0.00000000       0.00000000       0.01172832
Ne       0.00000000       0.00000000       3.91414141       0.00000000       0.00000000      -0.01172832
2
Properties=species:S:1:pos:R:3:forces:R:3 energy=-3.7600129227162076 pbc="F F F"
Ne       0.00000000       0.00000000       0.00000000       0.00000000       0.00000000       0.01190375
Ne       0.00000000       0.00000000       3.97373737       0.00000000       0.00000000      -0.01190375
2
Properties=species:S:1:pos:R:3:forces:R:3 energy=-3.759298182778239 pbc="F F F"
Ne       0.00000000       0.00000000       0.00000000       0.00000000       0.00000000       0.01207686
Ne       0.00000000       0.00000000       4.03333333       0.00000000       0.00000000      -0.01207686
2
Properties=species:S:1:pos:R:3:forces:R:3 energy=-3.7585744962924355 pbc="F F F"
Ne       0.00000000       0.00000000       0.00000000       0.00000000       0.00000000       0.01219766
Ne       0.00000000       0.00000000       4.09292929       0.00000000       0.00000000      -0.01219766
2
Properties=species:S:1:pos:R:3:forces:R:3 energy=-3.7578464894343977 pbc="F F F"
Ne       0.00000000       0.00000000       0.00000000       0.00000000       0.00000000       0.01221881
Ne       0.00000000       0.00000000       4.15252525       0.00000000       0.00000000      -0.01221881
2
Properties=species:S:1:pos:R:3:forces:R:3 energy=-3.757120923752522 pbc="F F F"
Ne       0.00000000       0.00000000       0.00000000       0.00000000       0.00000000       0.01210378
Ne       0.00000000       0.00000000       4.21212121       0.00000000       0.00000000      -0.01210378
2
Properties=species:S:1:pos:R:3:forces:R:3 energy=-3.756406695079061 pbc="F F F"
Ne       0.00000000       0.00000000       0.00000000       0.00000000       0.00000000       0.01183366
Ne       0.00000000       0.00000000       4.27171717       0.00000000       0.00000000      -0.01183366
2
Properties=species:S:1:pos:R:3:forces:R:3 energy=-3.7557134032166384 pbc="F F F"
Ne       0.00000000       0.00000000       0.00000000       0.00000000       0.00000000       0.01140960
Ne       0.00000000       0.00000000       4.33131313       0.00000000       0.00000000      -0.01140960
2
Properties=species:S:1:pos:R:3:forces:R:3 energy=-3.7550496828102062 pbc="F F F"
Ne       0.00000000       0.00000000       0.00000000       0.00000000       0.00000000       0.01085080
Ne       0.00000000       0.00000000       4.39090909       0.00000000       0.00000000      -0.01085080
2
Properties=species:S:1:pos:R:3:forces:R:3 energy=-3.754422249722226 pbc="F F F"
Ne       0.00000000       0.00000000       0.00000000       0.00000000       0.00000000       0.01018865
Ne       0.00000000       0.00000000       4.45050505       0.00000000       0.00000000      -0.01018865
2
Properties=species:S:1:pos:R:3:forces:R:3 energy=-3.7538366175010864 pbc="F F F"
Ne       0.00000000       0.00000000       0.00000000       0.00000000       0.00000000       0.00945827
Ne       0.00000000       0.00000000       4.51010101       0.00000000       0.00000000      -0.00945827
2
Properties=species:S:1:pos:R:3:forces:R:3 energy=-3.75329566617667 pbc="F F F"
Ne       0.00000000       0.00000000       0.00000000       0.00000000       0.00000000       0.00869014
Ne       0.00000000       0.00000000       4.56969697       0.00000000       0.00000000      -0.00869014
2
Properties=species:S:1:pos:R:3:forces:R:3 energy=-3.7528010756674135 pbc="F F F"
Ne       0.00000000       0.00000000       0.00000000       0.00000000       0.00000000       0.00790383
Ne       0.00000000       0.00000000       4.62929293       0.00000000       0.00000000      -0.00790383
2
Properties=species:S:1:pos:R:3:forces:R:3 energy=-3.7523538020235003 pbc="F F F"
Ne       0.00000000       0.00000000       0.00000000       0.00000000       0.00000000       0.00710511
Ne       0.00000000       0.00000000       4.68888889       0.00000000       0.00000000      -0.00710511
2
Properties=species:S:1:pos:R:3:forces:R:3 energy=-3.7519545562191574 pbc="F F F"
Ne       0.00000000       0.00000000       0.00000000       0.00000000       0.00000000       0.00628739
Ne       0.00000000       0.00000000       4.74848485       0.00000000       0.00000000      -0.00628739
2
Properties=species:S:1:pos:R:3:forces:R:3 energy=-3.7516049960475644 pbc="F F F"
Ne       0.00000000       0.00000000       0.00000000       0.00000000       0.00000000       0.00543834
Ne       0.00000000       0.00000000       4.80808081       0.00000000       0.00000000      -0.00543834
2
Properties=species:S:1:pos:R:3:forces:R:3 energy=-3.751307251882297 pbc="F F F"
Ne       0.00000000       0.00000000       0.00000000       0.00000000       0.00000000       0.00454827
Ne       0.00000000       0.00000000       4.86767677       0.00000000       0.00000000      -0.00454827
2
Properties=species:S:1:pos:R:3:forces:R:3 energy=-3.751063688110258 pbc="F F F"
Ne       0.00000000       0.00000000       0.00000000       0.00000000       0.00000000       0.00361973
Ne       0.00000000       0.00000000       4.92727273       0.00000000       0.00000000      -0.00361973
2
Properties=species:S:1:pos:R:3:forces:R:3 energy=-3.750876188816386 pbc="F F F"
Ne       0.00000000       0.00000000       0.00000000       0.00000000       0.00000000       0.00267209
Ne       0.00000000       0.00000000       4.98686869       0.00000000       0.00000000      -0.00267209
2
Properties=species:S:1:pos:R:3:forces:R:3 energy=-3.750744966903443 pbc="F F F"
Ne       0.00000000       0.00000000       0.00000000       0.00000000       0.00000000       0.00173936
Ne       0.00000000       0.00000000       5.04646465       0.00000000       0.00000000      -0.00173936
2
Properties=species:S:1:pos:R:3:forces:R:3 energy=-3.7506678487125336 pbc="F F F"
Ne       0.00000000       0.00000000       0.00000000       0.00000000       0.00000000       0.00085961
Ne       0.00000000       0.00000000       5.10606061       0.00000000       0.00000000      -0.00085961
2
Properties=species:S:1:pos:R:3:forces:R:3 energy=-3.7506407523699266 pbc="F F F"
Ne       0.00000000       0.00000000       0.00000000       0.00000000       0.00000000       0.00006089
Ne       0.00000000       0.00000000       5.16565657       0.00000000       0.00000000      -0.00006089
2
Properties=species:S:1:pos:R:3:forces:R:3 energy=-3.7506588798799534 pbc="F F F"
Ne       0.00000000       0.00000000       0.00000000       0.00000000       0.00000000      -0.00065141
Ne       0.00000000       0.00000000       5.22525253       0.00000000       0.00000000       0.00065141
2
Properties=species:S:1:pos:R:3:forces:R:3 energy=-3.750717194283897 pbc="F F F"
Ne       0.00000000       0.00000000       0.00000000       0.00000000       0.00000000      -0.00129694
Ne       0.00000000       0.00000000       5.28484848       0.00000000       0.00000000       0.00129694
2
Properties=species:S:1:pos:R:3:forces:R:3 energy=-3.750812566206784 pbc="F F F"
Ne       0.00000000       0.00000000       0.00000000       0.00000000       0.00000000      -0.00190116
Ne       0.00000000       0.00000000       5.34444444       0.00000000       0.00000000       0.00190116
2
Properties=species:S:1:pos:R:3:forces:R:3 energy=-3.750942581665497 pbc="F F F"
Ne       0.00000000       0.00000000       0.00000000       0.00000000       0.00000000      -0.00244492
Ne       0.00000000       0.00000000       5.40404040       0.00000000       0.00000000       0.00244492
2
Properties=species:S:1:pos:R:3:forces:R:3 energy=-3.751100535810706 pbc="F F F"
Ne       0.00000000       0.00000000       0.00000000       0.00000000       0.00000000      -0.00280801
Ne       0.00000000       0.00000000       5.46363636       0.00000000       0.00000000       0.00280801
2
Properties=species:S:1:pos:R:3:forces:R:3 energy=-3.75127042613671 pbc="F F F"
Ne       0.00000000       0.00000000       0.00000000       0.00000000       0.00000000      -0.00284413
Ne       0.00000000       0.00000000       5.52323232       0.00000000       0.00000000       0.00284413
2
Properties=species:S:1:pos:R:3:forces:R:3 energy=-3.751433390092427 pbc="F F F"
Ne       0.00000000       0.00000000       0.00000000       0.00000000       0.00000000      -0.00258470
Ne       0.00000000       0.00000000       5.58282828       0.00000000       0.00000000       0.00258470
2
Properties=species:S:1:pos:R:3:forces:R:3 energy=-3.7515753342903135 pbc="F F F"
Ne       0.00000000       0.00000000       0.00000000       0.00000000       0.00000000      -0.00215237
Ne       0.00000000       0.00000000       5.64242424       0.00000000       0.00000000       0.00215237
2
Properties=species:S:1:pos:R:3:forces:R:3 energy=-3.751688127019986 pbc="F F F"
Ne       0.00000000       0.00000000       0.00000000       0.00000000       0.00000000      -0.00161602
Ne       0.00000000       0.00000000       5.70202020       0.00000000       0.00000000       0.00161602
2
Properties=species:S:1:pos:R:3:forces:R:3 energy=-3.7517660218829136 pbc="F F F"
Ne       0.00000000       0.00000000       0.00000000       0.00000000       0.00000000      -0.00100024
Ne       0.00000000       0.00000000       5.76161616       0.00000000       0.00000000       0.00100024
2
Properties=species:S:1:pos:R:3:forces:R:3 energy=-3.751808518703998 pbc="F F F"
Ne       0.00000000       0.00000000       0.00000000       0.00000000       0.00000000      -0.00044738
Ne       0.00000000       0.00000000       5.82121212       0.00000000       0.00000000       0.00044738
2
Properties=species:S:1:pos:R:3:forces:R:3 energy=-3.7518239400824953 pbc="F F F"
Ne       0.00000000       0.00000000       0.00000000       0.00000000       0.00000000      -0.00011386
Ne       0.00000000       0.00000000       5.88080808       0.00000000       0.00000000       0.00011386
2
Properties=species:S:1:pos:R:3:forces:R:3 energy=-3.7518256164348913 pbc="F F F"
Ne       0.00000000       0.00000000       0.00000000       0.00000000       0.00000000       0.00003561
Ne       0.00000000       0.00000000       5.94040404       0.00000000       0.00000000      -0.00003561
2
Properties=species:S:1:pos:R:3:forces:R:3 energy=-3.7518218725940042 pbc="F F F"
Ne       0.00000000       0.00000000       0.00000000       0.00000000       0.00000000       0.00007640
Ne       0.00000000       0.00000000       6.00000000       0.00000000       0.00000000      -0.00007640
