2
Properties=species:S:1:pos:R:3:forces:R:3 energy=34201.22598510758 pbc="F F F"
Pd       0.00000000       0.00000000       0.00000000       0.00000000       0.00000000 -884650.62500000
Pd       0.00000000       0.00000000       0.10000000       0.00000000       0.00000000  884650.62500000
2
Properties=species:S:1:pos:R:3:forces:R:3 energy=8113.712313232578 pbc="F F F"
Pd       0.00000000       0.00000000       0.00000000       0.00000000       0.00000000 -194204.59375000
Pd       0.00000000       0.00000000       0.15959596       0.00000000       0.00000000  194204.59375000
2
Properties=species:S:1:pos:R:3:forces:R:3 energy=1429.2114587403908 pbc="F F F"
Pd       0.00000000       0.00000000       0.00000000       0.00000000       0.00000000  -59952.35937500
Pd       0.00000000       0.00000000       0.21919192       0.00000000       0.00000000   59952.35937500
2
Properties=species:S:1:pos:R:3:forces:R:3 energy=-764.8614172361717 pbc="F F F"
Pd       0.00000000       0.00000000       0.00000000       0.00000000       0.00000000  -20420.15625000
Pd       0.00000000       0.00000000       0.27878788       0.00000000       0.00000000   20420.15625000
2
Properties=species:S:1:pos:R:3:forces:R:3 energy=-1446.9297766111717 pbc="F F F"
Pd       0.00000000       0.00000000       0.00000000       0.00000000       0.00000000   -4459.08691406
Pd       0.00000000       0.00000000       0.33838384       0.00000000       0.00000000    4459.08691406
2
Properties=species:S:1:pos:R:3:forces:R:3 energy=-1445.6715979002342 pbc="F F F"
Pd       0.00000000       0.00000000       0.00000000       0.00000000       0.00000000    3654.18310547
Pd       0.00000000       0.00000000       0.39797980       0.00000000       0.00000000   -3654.18310547
2
Properties=species:S:1:pos:R:3:forces:R:3 energy=-1097.2267736799004 pbc="F F F"
Pd       0.00000000       0.00000000       0.00000000       0.00000000       0.00000000    7366.52539062
Pd       0.00000000       0.00000000       0.45757576       0.00000000       0.00000000   -7366.52539062
2
Properties=species:S:1:pos:R:3:forces:R:3 energy=-664.6863073681387 pbc="F F F"
Pd       0.00000000       0.00000000       0.00000000       0.00000000       0.00000000    6874.57910156
Pd       0.00000000       0.00000000       0.51717172       0.00000000       0.00000000   -6874.57910156
2
Properties=species:S:1:pos:R:3:forces:R:3 energy=-332.6861852938665 pbc="F F F"
Pd       0.00000000       0.00000000       0.00000000       0.00000000       0.00000000    4020.24194336
Pd       0.00000000       0.00000000       0.57676768       0.00000000       0.00000000   -4020.24194336
2
Properties=species:S:1:pos:R:3:forces:R:3 energy=-180.2881750320407 pbc="F F F"
Pd       0.00000000       0.00000000       0.00000000       0.00000000       0.00000000    1385.97119141
Pd       0.00000000       0.00000000       0.63636364       0.00000000       0.00000000   -1385.97119141
2
Properties=species:S:1:pos:R:3:forces:R:3 energy=-131.86431637758324 pbc="F F F"
Pd       0.00000000       0.00000000       0.00000000       0.00000000       0.00000000     447.91174316
Pd       0.00000000       0.00000000       0.69595960       0.00000000       0.00000000    -447.91174316
2
Properties=species:S:1:pos:R:3:forces:R:3 energy=-125.22302760125208 pbc="F F F"
Pd       0.00000000       0.00000000       0.00000000       0.00000000       0.00000000      55.08988190
Pd       0.00000000       0.00000000       0.75555556       0.00000000       0.00000000     -55.08988190
2
Properties=species:S:1:pos:R:3:forces:R:3 energy=-107.091756210437 pbc="F F F"
Pd       0.00000000       0.00000000       0.00000000       0.00000000       0.00000000     543.25750732
Pd       0.00000000       0.00000000       0.81515152       0.00000000       0.00000000    -543.25750732
2
Properties=species:S:1:pos:R:3:forces:R:3 energy=-71.01607257708922 pbc="F F F"
Pd       0.00000000       0.00000000       0.00000000       0.00000000       0.00000000     606.60437012
Pd       0.00000000       0.00000000       0.87474747       0.00000000       0.00000000    -606.60437012
2
Properties=species:S:1:pos:R:3:forces:R:3 energy=-37.69353605077061 pbc="F F F"
Pd       0.00000000       0.00000000       0.00000000       0.00000000       0.00000000     497.01547241
Pd       0.00000000       0.00000000       0.93434343       0.00000000       0.00000000    -497.01547241
2
Properties=species:S:1:pos:R:3:forces:R:3 energy=-12.836043525467595 pbc="F F F"
Pd       0.00000000       0.00000000       0.00000000       0.00000000       0.00000000     326.30969238
Pd       0.00000000       0.00000000       0.99393939       0.00000000       0.00000000    -326.30969238
2
Properties=species:S:1:pos:R:3:forces:R:3 energy=0.6998700480616735 pbc="F F F"
Pd       0.00000000       0.00000000       0.00000000       0.00000000       0.00000000     145.78684998
Pd       0.00000000       0.00000000       1.05353535       0.00000000       0.00000000    -145.78684998
2
Properties=species:S:1:pos:R:3:forces:R:3 energy=6.241240581667418 pbc="F F F"
Pd       0.00000000       0.00000000       0.00000000       0.00000000       0.00000000      48.76171875
Pd       0.00000000       0.00000000       1.11313131       0.00000000       0.00000000     -48.76171875
2
Properties=species:S:1:pos:R:3:forces:R:3 energy=7.355727462112906 pbc="F F F"
Pd       0.00000000       0.00000000       0.00000000       0.00000000       0.00000000     -28.87965393
Pd       0.00000000       0.00000000       1.17272727       0.00000000       0.00000000      28.87965393
2
Properties=species:S:1:pos:R:3:forces:R:3 energy=1.018149883043171 pbc="F F F"
Pd       0.00000000       0.00000000       0.00000000       0.00000000       0.00000000    -139.54873657
Pd       0.00000000       0.00000000       1.23232323       0.00000000       0.00000000     139.54873657
2
Properties=species:S:1:pos:R:3:forces:R:3 energy=-7.049211640551165 pbc="F F F"
Pd       0.00000000       0.00000000       0.00000000       0.00000000       0.00000000    -127.57663727
Pd       0.00000000       0.00000000       1.29191919       0.00000000       0.00000000     127.57663727
2
Properties=species:S:1:pos:R:3:forces:R:3 energy=-13.809268701041816 pbc="F F F"
Pd       0.00000000       0.00000000       0.00000000       0.00000000       0.00000000     -98.37522888
Pd       0.00000000       0.00000000       1.35151515       0.00000000       0.00000000      98.37522888
2
Properties=species:S:1:pos:R:3:forces:R:3 energy=-18.913579204161 pbc="F F F"
Pd       0.00000000       0.00000000       0.00000000       0.00000000       0.00000000     -74.56979370
Pd       0.00000000       0.00000000       1.41111111       0.00000000       0.00000000      74.56979370
2
Properties=species:S:1:pos:R:3:forces:R:3 energy=-22.8384004503688 pbc="F F F"
Pd       0.00000000       0.00000000       0.00000000       0.00000000       0.00000000     -58.03434372
Pd       0.00000000       0.00000000       1.47070707       0.00000000       0.00000000      58.03434372
2
Properties=species:S:1:pos:R:3:forces:R:3 energy=-25.928212960527222 pbc="F F F"
Pd       0.00000000       0.00000000       0.00000000       0.00000000       0.00000000     -46.43972778
Pd       0.00000000       0.00000000       1.53030303       0.00000000       0.00000000      46.43972778
2
Properties=species:S:1:pos:R:3:forces:R:3 energy=-28.455744669266647 pbc="F F F"
Pd       0.00000000       0.00000000       0.00000000       0.00000000       0.00000000     -38.93167114
Pd       0.00000000       0.00000000       1.58989899       0.00000000       0.00000000      38.93167114
2
Properties=species:S:1:pos:R:3:forces:R:3 energy=-30.61477842970893 pbc="F F F"
Pd       0.00000000       0.00000000       0.00000000       0.00000000       0.00000000     -33.76258087
Pd       0.00000000       0.00000000       1.64949495       0.00000000       0.00000000      33.76258087
2
Properties=species:S:1:pos:R:3:forces:R:3 energy=-32.495055049672835 pbc="F F F"
Pd       0.00000000       0.00000000       0.00000000       0.00000000       0.00000000     -29.38265228
Pd       0.00000000       0.00000000       1.70909091       0.00000000       0.00000000      29.38265228
2
Properties=species:S:1:pos:R:3:forces:R:3 energy=-34.118024773831635 pbc="F F F"
Pd       0.00000000       0.00000000       0.00000000       0.00000000       0.00000000     -25.08403015
Pd       0.00000000       0.00000000       1.76868687       0.00000000       0.00000000      25.08403015
2
Properties=species:S:1:pos:R:3:forces:R:3 energy=-35.48695154849352 pbc="F F F"
Pd       0.00000000       0.00000000       0.00000000       0.00000000       0.00000000     -20.89369011
Pd       0.00000000       0.00000000       1.82828283       0.00000000       0.00000000      20.89369011
2
Properties=species:S:1:pos:R:3:forces:R:3 energy=-36.61440185126691 pbc="F F F"
Pd       0.00000000       0.00000000       0.00000000       0.00000000       0.00000000     -17.00075722
Pd       0.00000000       0.00000000       1.88787879       0.00000000       0.00000000      17.00075722
2
Properties=species:S:1:pos:R:3:forces:R:3 energy=-37.52065633056743 pbc="F F F"
Pd       0.00000000       0.00000000       0.00000000       0.00000000       0.00000000     -13.47794914
Pd       0.00000000       0.00000000       1.94747475       0.00000000       0.00000000      13.47794914
2
Properties=species:S:1:pos:R:3:forces:R:3 energy=-38.229254665283726 pbc="F F F"
Pd       0.00000000       0.00000000       0.00000000       0.00000000       0.00000000     -10.37712574
Pd       0.00000000       0.00000000       2.00707071       0.00000000       0.00000000      10.37712574
2
Properties=species:S:1:pos:R:3:forces:R:3 energy=-38.76669135280615 pbc="F F F"
Pd       0.00000000       0.00000000       0.00000000       0.00000000       0.00000000      -7.73515940
Pd       0.00000000       0.00000000       2.06666667       0.00000000       0.00000000       7.73515940
2
Properties=species:S:1:pos:R:3:forces:R:3 energy=-39.15979622844891 pbc="F F F"
Pd       0.00000000       0.00000000       0.00000000       0.00000000       0.00000000      -5.52359724
Pd       0.00000000       0.00000000       2.12626263       0.00000000       0.00000000       5.52359724
2
Properties=species:S:1:pos:R:3:forces:R:3 energy=-39.43232628179765 pbc="F F F"
Pd       0.00000000       0.00000000       0.00000000       0.00000000       0.00000000      -3.67860866
Pd       0.00000000       0.00000000       2.18585859       0.00000000       0.00000000       3.67860866
2
Properties=species:S:1:pos:R:3:forces:R:3 energy=-39.60453410901827 pbc="F F F"
Pd       0.00000000       0.00000000       0.00000000       0.00000000       0.00000000      -2.15067840
Pd       0.00000000       0.00000000       2.24545455       0.00000000       0.00000000       2.15067840
2
Properties=species:S:1:pos:R:3:forces:R:3 energy=-39.69445509662447 pbc="F F F"
Pd       0.00000000       0.00000000       0.00000000       0.00000000       0.00000000      -0.91399342
Pd       0.00000000       0.00000000       2.30505051       0.00000000       0.00000000       0.91399342
2
Properties=species:S:1:pos:R:3:forces:R:3 energy=-39.71887714050827 pbc="F F F"
Pd       0.00000000       0.00000000       0.00000000       0.00000000       0.00000000       0.05141686
Pd       0.00000000       0.00000000       2.36464646       0.00000000       0.00000000      -0.05141686
2
Properties=species:S:1:pos:R:3:forces:R:3 energy=-39.69306369073146 pbc="F F F"
Pd       0.00000000       0.00000000       0.00000000       0.00000000       0.00000000       0.77884424
Pd       0.00000000       0.00000000       2.42424242       0.00000000       0.00000000      -0.77884424
2
Properties=species:S:1:pos:R:3:forces:R:3 energy=-39.62982003262891 pbc="F F F"
Pd       0.00000000       0.00000000       0.00000000       0.00000000       0.00000000       1.31590772
Pd       0.00000000       0.00000000       2.48383838       0.00000000       0.00000000      -1.31590772
2
Properties=species:S:1:pos:R:3:forces:R:3 energy=-39.5391749817709 pbc="F F F"
Pd       0.00000000       0.00000000       0.00000000       0.00000000       0.00000000       1.70339477
Pd       0.00000000       0.00000000       2.54343434       0.00000000       0.00000000      -1.70339477
2
Properties=species:S:1:pos:R:3:forces:R:3 energy=-39.4294463185671 pbc="F F F"
Pd       0.00000000       0.00000000       0.00000000       0.00000000       0.00000000       1.95636904
Pd       0.00000000       0.00000000       2.60303030       0.00000000       0.00000000      -1.95636904
2
Properties=species:S:1:pos:R:3:forces:R:3 energy=-39.30880545952427 pbc="F F F"
Pd       0.00000000       0.00000000       0.00000000       0.00000000       0.00000000       2.06745148
Pd       0.00000000       0.00000000       2.66262626       0.00000000       0.00000000      -2.06745148
2
Properties=species:S:1:pos:R:3:forces:R:3 energy=-39.18601701427473 pbc="F F F"
Pd       0.00000000       0.00000000       0.00000000       0.00000000       0.00000000       2.02894115
Pd       0.00000000       0.00000000       2.72222222       0.00000000       0.00000000      -2.02894115
2
Properties=species:S:1:pos:R:3:forces:R:3 energy=-39.0695710824351 pbc="F F F"
Pd       0.00000000       0.00000000       0.00000000       0.00000000       0.00000000       1.86077285
Pd       0.00000000       0.00000000       2.78181818       0.00000000       0.00000000      -1.86077285
2
Properties=species:S:1:pos:R:3:forces:R:3 energy=-38.965792904003095 pbc="F F F"
Pd       0.00000000       0.00000000       0.00000000       0.00000000       0.00000000       1.61424100
Pd       0.00000000       0.00000000       2.84141414       0.00000000       0.00000000      -1.61424100
2
Properties=species:S:1:pos:R:3:forces:R:3 energy=-38.877407911727346 pbc="F F F"
Pd       0.00000000       0.00000000       0.00000000       0.00000000       0.00000000       1.35542846
Pd       0.00000000       0.00000000       2.90101010       0.00000000       0.00000000      -1.35542846
2
Properties=species:S:1:pos:R:3:forces:R:3 energy=-38.80323074837381 pbc="F F F"
Pd       0.00000000       0.00000000       0.00000000       0.00000000       0.00000000       1.14652491
Pd       0.00000000       0.00000000       2.96060606       0.00000000       0.00000000      -1.14652491
2
Properties=species:S:1:pos:R:3:forces:R:3 energy=-38.73893768771734 pbc="F F F"
Pd       0.00000000       0.00000000       0.00000000       0.00000000       0.00000000       1.02783811
Pd       0.00000000       0.00000000       3.02020202       0.00000000       0.00000000      -1.02783811
2
Properties=species:S:1:pos:R:3:forces:R:3 energy=-38.678761561008194 pbc="F F F"
Pd       0.00000000       0.00000000       0.00000000       0.00000000       0.00000000       1.00664723
Pd       0.00000000       0.00000000       3.07979798       0.00000000       0.00000000      -1.00664723
2
Properties=species:S:1:pos:R:3:forces:R:3 energy=-38.61746193563742 pbc="F F F"
Pd       0.00000000       0.00000000       0.00000000       0.00000000       0.00000000       1.05992794
Pd       0.00000000       0.00000000       3.13939394       0.00000000       0.00000000      -1.05992794
2
Properties=species:S:1:pos:R:3:forces:R:3 energy=-38.55173529169255 pbc="F F F"
Pd       0.00000000       0.00000000       0.00000000       0.00000000       0.00000000       1.14812648
Pd       0.00000000       0.00000000       3.19898990       0.00000000       0.00000000      -1.14812648
2
Properties=species:S:1:pos:R:3:forces:R:3 energy=-38.480719176554125 pbc="F F F"
Pd       0.00000000       0.00000000       0.00000000       0.00000000       0.00000000       1.23139513
Pd       0.00000000       0.00000000       3.25858586       0.00000000       0.00000000      -1.23139513
2
Properties=species:S:1:pos:R:3:forces:R:3 energy=-38.405633891033744 pbc="F F F"
Pd       0.00000000       0.00000000       0.00000000       0.00000000       0.00000000       1.28138185
Pd       0.00000000       0.00000000       3.31818182       0.00000000       0.00000000      -1.28138185
2
Properties=species:S:1:pos:R:3:forces:R:3 energy=-38.32890519295022 pbc="F F F"
Pd       0.00000000       0.00000000       0.00000000       0.00000000       0.00000000       1.28575587
Pd       0.00000000       0.00000000       3.37777778       0.00000000       0.00000000      -1.28575587
2
Properties=species:S:1:pos:R:3:forces:R:3 energy=-38.253263909781566 pbc="F F F"
Pd       0.00000000       0.00000000       0.00000000       0.00000000       0.00000000       1.24598968
Pd       0.00000000       0.00000000       3.43737374       0.00000000       0.00000000      -1.24598968
2
Properties=species:S:1:pos:R:3:forces:R:3 energy=-38.1810823254767 pbc="F F F"
Pd       0.00000000       0.00000000       0.00000000       0.00000000       0.00000000       1.17156017
Pd       0.00000000       0.00000000       3.49696970       0.00000000       0.00000000      -1.17156017
2
Properties=species:S:1:pos:R:3:forces:R:3 energy=-38.114076572296206 pbc="F F F"
Pd       0.00000000       0.00000000       0.00000000       0.00000000       0.00000000       1.07440436
Pd       0.00000000       0.00000000       3.55656566       0.00000000       0.00000000      -1.07440436
2
Properties=species:S:1:pos:R:3:forces:R:3 energy=-38.05324944678324 pbc="F F F"
Pd       0.00000000       0.00000000       0.00000000       0.00000000       0.00000000       0.96582407
Pd       0.00000000       0.00000000       3.61616162       0.00000000       0.00000000      -0.96582407
2
Properties=species:S:1:pos:R:3:forces:R:3 energy=-37.99898957130168 pbc="F F F"
Pd       0.00000000       0.00000000       0.00000000       0.00000000       0.00000000       0.85543352
Pd       0.00000000       0.00000000       3.67575758       0.00000000       0.00000000      -0.85543352
2
Properties=species:S:1:pos:R:3:forces:R:3 energy=-37.95117059200407 pbc="F F F"
Pd       0.00000000       0.00000000       0.00000000       0.00000000       0.00000000       0.75099176
Pd       0.00000000       0.00000000       3.73535354       0.00000000       0.00000000      -0.75099176
2
Properties=species:S:1:pos:R:3:forces:R:3 energy=-37.90924654151158 pbc="F F F"
Pd       0.00000000       0.00000000       0.00000000       0.00000000       0.00000000       0.65820098
Pd       0.00000000       0.00000000       3.79494949       0.00000000       0.00000000      -0.65820098
2
Properties=species:S:1:pos:R:3:forces:R:3 energy=-37.872415894655056 pbc="F F F"
Pd       0.00000000       0.00000000       0.00000000       0.00000000       0.00000000       0.58047700
Pd       0.00000000       0.00000000       3.85454545       0.00000000       0.00000000      -0.58047700
2
Properties=species:S:1:pos:R:3:forces:R:3 energy=-37.83973597454696 pbc="F F F"
Pd       0.00000000       0.00000000       0.00000000       0.00000000       0.00000000       0.51890081
Pd       0.00000000       0.00000000       3.91414141       0.00000000       0.00000000      -0.51890081
2
Properties=species:S:1:pos:R:3:forces:R:3 energy=-37.810264183495335 pbc="F F F"
Pd       0.00000000       0.00000000       0.00000000       0.00000000       0.00000000       0.47247887
Pd       0.00000000       0.00000000       3.97373737       0.00000000       0.00000000      -0.47247887
2
Properties=species:S:1:pos:R:3:forces:R:3 energy=-37.783168554780616 pbc="F F F"
Pd       0.00000000       0.00000000       0.00000000       0.00000000       0.00000000       0.43866825
Pd       0.00000000       0.00000000       4.03333333       0.00000000       0.00000000      -0.43866825
2
Properties=species:S:1:pos:R:3:forces:R:3 energy=-37.757796456804265 pbc="F F F"
Pd       0.00000000       0.00000000       0.00000000       0.00000000       0.00000000       0.41403279
Pd       0.00000000       0.00000000       4.09292929       0.00000000       0.00000000      -0.41403279
2
Properties=species:S:1:pos:R:3:forces:R:3 energy=-37.73370893645149 pbc="F F F"
Pd       0.00000000       0.00000000       0.00000000       0.00000000       0.00000000       0.39489353
Pd       0.00000000       0.00000000       4.15252525       0.00000000       0.00000000      -0.39489353
2
Properties=species:S:1:pos:R:3:forces:R:3 energy=-37.71068836274101 pbc="F F F"
Pd       0.00000000       0.00000000       0.00000000       0.00000000       0.00000000       0.37784094
Pd       0.00000000       0.00000000       4.21212121       0.00000000       0.00000000      -0.37784094
2
Properties=species:S:1:pos:R:3:forces:R:3 energy=-37.68868879616279 pbc="F F F"
Pd       0.00000000       0.00000000       0.00000000       0.00000000       0.00000000       0.36009818
Pd       0.00000000       0.00000000       4.27171717       0.00000000       0.00000000      -0.36009818
2
Properties=species:S:1:pos:R:3:forces:R:3 energy=-37.66782080591674 pbc="F F F"
Pd       0.00000000       0.00000000       0.00000000       0.00000000       0.00000000       0.33968848
Pd       0.00000000       0.00000000       4.33131313       0.00000000       0.00000000      -0.33968848
2
Properties=species:S:1:pos:R:3:forces:R:3 energy=-37.64827514587307 pbc="F F F"
Pd       0.00000000       0.00000000       0.00000000       0.00000000       0.00000000       0.31550315
Pd       0.00000000       0.00000000       4.39090909       0.00000000       0.00000000      -0.31550315
2
Properties=species:S:1:pos:R:3:forces:R:3 energy=-37.63029605644317 pbc="F F F"
Pd       0.00000000       0.00000000       0.00000000       0.00000000       0.00000000       0.28724840
Pd       0.00000000       0.00000000       4.45050505       0.00000000       0.00000000      -0.28724840
2
Properties=species:S:1:pos:R:3:forces:R:3 energy=-37.614112611116234 pbc="F F F"
Pd       0.00000000       0.00000000       0.00000000       0.00000000       0.00000000       0.25533795
Pd       0.00000000       0.00000000       4.51010101       0.00000000       0.00000000      -0.25533795
2
Properties=species:S:1:pos:R:3:forces:R:3 energy=-37.599915844114726 pbc="F F F"
Pd       0.00000000       0.00000000       0.00000000       0.00000000       0.00000000       0.22071953
Pd       0.00000000       0.00000000       4.56969697       0.00000000       0.00000000      -0.22071953
2
Properties=species:S:1:pos:R:3:forces:R:3 energy=-37.58783203484227 pbc="F F F"
Pd       0.00000000       0.00000000       0.00000000       0.00000000       0.00000000       0.18468389
Pd       0.00000000       0.00000000       4.62929293       0.00000000       0.00000000      -0.18468389
2
Properties=species:S:1:pos:R:3:forces:R:3 energy=-37.57790362806166 pbc="F F F"
Pd       0.00000000       0.00000000       0.00000000       0.00000000       0.00000000       0.14865960
Pd       0.00000000       0.00000000       4.68888889       0.00000000       0.00000000      -0.14865960
2
Properties=species:S:1:pos:R:3:forces:R:3 energy=-37.570085461963224 pbc="F F F"
Pd       0.00000000       0.00000000       0.00000000       0.00000000       0.00000000       0.11400848
Pd       0.00000000       0.00000000       4.74848485       0.00000000       0.00000000      -0.11400848
2
Properties=species:S:1:pos:R:3:forces:R:3 energy=-37.56426377354291 pbc="F F F"
Pd       0.00000000       0.00000000       0.00000000       0.00000000       0.00000000       0.08189021
Pd       0.00000000       0.00000000       4.80808081       0.00000000       0.00000000      -0.08189021
2
Properties=species:S:1:pos:R:3:forces:R:3 energy=-37.560256258790986 pbc="F F F"
Pd       0.00000000       0.00000000       0.00000000       0.00000000       0.00000000       0.05314879
Pd       0.00000000       0.00000000       4.86767677       0.00000000       0.00000000      -0.05314879
2
Properties=species:S:1:pos:R:3:forces:R:3 energy=-37.55785017373122 pbc="F F F"
Pd       0.00000000       0.00000000       0.00000000       0.00000000       0.00000000       0.02833986
Pd       0.00000000       0.00000000       4.92727273       0.00000000       0.00000000      -0.02833986
2
Properties=species:S:1:pos:R:3:forces:R:3 energy=-37.55679470819419 pbc="F F F"
Pd       0.00000000       0.00000000       0.00000000       0.00000000       0.00000000       0.00777287
Pd       0.00000000       0.00000000       4.98686869       0.00000000       0.00000000      -0.00777287
2
Properties=species:S:1:pos:R:3:forces:R:3 energy=-37.55683531650876 pbc="F F F"
Pd       0.00000000       0.00000000       0.00000000       0.00000000       0.00000000      -0.00840732
Pd       0.00000000       0.00000000       5.04646465       0.00000000       0.00000000       0.00840732
2
Properties=species:S:1:pos:R:3:forces:R:3 energy=-37.55770986637487 pbc="F F F"
Pd       0.00000000       0.00000000       0.00000000       0.00000000       0.00000000      -0.02024829
Pd       0.00000000       0.00000000       5.10606061       0.00000000       0.00000000       0.02024829
2
Properties=species:S:1:pos:R:3:forces:R:3 energy=-37.55917154447014 pbc="F F F"
Pd       0.00000000       0.00000000       0.00000000       0.00000000       0.00000000      -0.02812674
Pd       0.00000000       0.00000000       5.16565657       0.00000000       0.00000000       0.02812674
2
Properties=species:S:1:pos:R:3:forces:R:3 energy=-37.56100408435267 pbc="F F F"
Pd       0.00000000       0.00000000       0.00000000       0.00000000       0.00000000      -0.03302651
Pd       0.00000000       0.00000000       5.22525253       0.00000000       0.00000000       0.03302651
2
Properties=species:S:1:pos:R:3:forces:R:3 energy=-37.56308277785861 pbc="F F F"
Pd       0.00000000       0.00000000       0.00000000       0.00000000       0.00000000      -0.03672073
Pd       0.00000000       0.00000000       5.28484848       0.00000000       0.00000000       0.03672073
2
Properties=species:S:1:pos:R:3:forces:R:3 energy=-37.565393554132214 pbc="F F F"
Pd       0.00000000       0.00000000       0.00000000       0.00000000       0.00000000      -0.04098107
Pd       0.00000000       0.00000000       5.34444444       0.00000000       0.00000000       0.04098107
2
Properties=species:S:1:pos:R:3:forces:R:3 energy=-37.56795284168088 pbc="F F F"
Pd       0.00000000       0.00000000       0.00000000       0.00000000       0.00000000      -0.04416699
Pd       0.00000000       0.00000000       5.40404040       0.00000000       0.00000000       0.04416699
2
Properties=species:S:1:pos:R:3:forces:R:3 energy=-37.57047567862564 pbc="F F F"
Pd       0.00000000       0.00000000       0.00000000       0.00000000       0.00000000      -0.03818428
Pd       0.00000000       0.00000000       5.46363636       0.00000000       0.00000000       0.03818428
2
Properties=species:S:1:pos:R:3:forces:R:3 energy=-37.572257444414696 pbc="F F F"
Pd       0.00000000       0.00000000       0.00000000       0.00000000       0.00000000      -0.02079124
Pd       0.00000000       0.00000000       5.52323232       0.00000000       0.00000000       0.02079124
2
Properties=species:S:1:pos:R:3:forces:R:3 energy=-37.57303979055898 pbc="F F F"
Pd       0.00000000       0.00000000       0.00000000       0.00000000       0.00000000      -0.00726830
Pd       0.00000000       0.00000000       5.58282828       0.00000000       0.00000000       0.00726830
2
Properties=species:S:1:pos:R:3:forces:R:3 energy=-37.573327232786774 pbc="F F F"
Pd       0.00000000       0.00000000       0.00000000       0.00000000       0.00000000      -0.00310986
Pd       0.00000000       0.00000000       5.64242424       0.00000000       0.00000000       0.00310986
2
Properties=species:S:1:pos:R:3:forces:R:3 energy=-37.573307597261234 pbc="F F F"
Pd       0.00000000       0.00000000       0.00000000       0.00000000       0.00000000       0.00596576
Pd       0.00000000       0.00000000       5.70202020       0.00000000       0.00000000      -0.00596576
2
Properties=species:S:1:pos:R:3:forces:R:3 energy=-37.57232940467912 pbc="F F F"
Pd       0.00000000       0.00000000       0.00000000       0.00000000       0.00000000       0.02813130
Pd       0.00000000       0.00000000       5.76161616       0.00000000       0.00000000      -0.02813130
2
Properties=species:S:1:pos:R:3:forces:R:3 energy=-37.5701187341479 pbc="F F F"
Pd       0.00000000       0.00000000       0.00000000       0.00000000       0.00000000       0.04221756
Pd       0.00000000       0.00000000       5.82121212       0.00000000       0.00000000      -0.04221756
2
Properties=species:S:1:pos:R:3:forces:R:3 energy=-37.567813024359744 pbc="F F F"
Pd       0.00000000       0.00000000       0.00000000       0.00000000       0.00000000       0.03210362
Pd       0.00000000       0.00000000       5.88080808       0.00000000       0.00000000      -0.03210362
2
Properties=species:S:1:pos:R:3:forces:R:3 energy=-37.56645043684324 pbc="F F F"
Pd       0.00000000       0.00000000       0.00000000       0.00000000       0.00000000       0.01369156
Pd       0.00000000       0.00000000       5.94040404       0.00000000       0.00000000      -0.01369156
2
Properties=species:S:1:pos:R:3:forces:R:3 energy=-37.565958974651274 pbc="F F F"
Pd       0.00000000       0.00000000       0.00000000       0.00000000       0.00000000       0.00548033
Pd       0.00000000       0.00000000       6.00000000       0.00000000       0.00000000      -0.00548033
