2
Properties=species:S:1:pos:R:3:forces:R:3 energy=55642.40381697973 pbc="F F F"
Rh       0.00000000       0.00000000       0.00000000       0.00000000       0.00000000 -853107.75000000
Rh       0.00000000       0.00000000       0.10000000       0.00000000       0.00000000  853107.75000000
2
Properties=species:S:1:pos:R:3:forces:R:3 energy=30338.581551354728 pbc="F F F"
Rh       0.00000000       0.00000000       0.00000000       0.00000000       0.00000000 -192215.21875000
Rh       0.00000000       0.00000000       0.15959596       0.00000000       0.00000000  192215.21875000
2
Properties=species:S:1:pos:R:3:forces:R:3 energy=23359.487801354728 pbc="F F F"
Rh       0.00000000       0.00000000       0.00000000       0.00000000       0.00000000  -71908.93750000
Rh       0.00000000       0.00000000       0.21919192       0.00000000       0.00000000   71908.93750000
2
Properties=species:S:1:pos:R:3:forces:R:3 energy=19942.048348229728 pbc="F F F"
Rh       0.00000000       0.00000000       0.00000000       0.00000000       0.00000000  -50617.59375000
Rh       0.00000000       0.00000000       0.27878788       0.00000000       0.00000000   50617.59375000
2
Properties=species:S:1:pos:R:3:forces:R:3 energy=16769.12256698131 pbc="F F F"
Rh       0.00000000       0.00000000       0.00000000       0.00000000       0.00000000  -58397.43750000
Rh       0.00000000       0.00000000       0.33838384       0.00000000       0.00000000   58397.43750000
2
Properties=species:S:1:pos:R:3:forces:R:3 energy=12865.515145106312 pbc="F F F"
Rh       0.00000000       0.00000000       0.00000000       0.00000000       0.00000000  -72091.34375000
Rh       0.00000000       0.00000000       0.39797980       0.00000000       0.00000000   72091.34375000
2
Properties=species:S:1:pos:R:3:forces:R:3 energy=8300.256356045395 pbc="F F F"
Rh       0.00000000       0.00000000       0.00000000       0.00000000       0.00000000  -78267.85937500
Rh       0.00000000       0.00000000       0.45757576       0.00000000       0.00000000   78267.85937500
2
Properties=species:S:1:pos:R:3:forces:R:3 energy=4121.793953704813 pbc="F F F"
Rh       0.00000000       0.00000000       0.00000000       0.00000000       0.00000000  -58875.30468750
Rh       0.00000000       0.00000000       0.51717172       0.00000000       0.00000000   58875.30468750
2
Properties=species:S:1:pos:R:3:forces:R:3 energy=1244.5128257782933 pbc="F F F"
Rh       0.00000000       0.00000000       0.00000000       0.00000000       0.00000000  -32911.51953125
Rh       0.00000000       0.00000000       0.57676768       0.00000000       0.00000000   32911.51953125
2
Properties=species:S:1:pos:R:3:forces:R:3 energy=155.4569481022499 pbc="F F F"
Rh       0.00000000       0.00000000       0.00000000       0.00000000       0.00000000   -6868.55957031
Rh       0.00000000       0.00000000       0.63636364       0.00000000       0.00000000    6868.55957031
2
Properties=species:S:1:pos:R:3:forces:R:3 energy=27.48163302092705 pbc="F F F"
Rh       0.00000000       0.00000000       0.00000000       0.00000000       0.00000000   -1443.44189453
Rh       0.00000000       0.00000000       0.69595960       0.00000000       0.00000000    1443.44189453
2
Properties=species:S:1:pos:R:3:forces:R:3 energy=11.437401626722973 pbc="F F F"
Rh       0.00000000       0.00000000       0.00000000       0.00000000       0.00000000    -123.06921387
Rh       0.00000000       0.00000000       0.75555556       0.00000000       0.00000000     123.06921387
2
Properties=species:S:1:pos:R:3:forces:R:3 energy=8.044167403887595 pbc="F F F"
Rh       0.00000000       0.00000000       0.00000000       0.00000000       0.00000000     -56.38435745
Rh       0.00000000       0.00000000       0.81515152       0.00000000       0.00000000      56.38435745
2
Properties=species:S:1:pos:R:3:forces:R:3 energy=3.3555611844461635 pbc="F F F"
Rh       0.00000000       0.00000000       0.00000000       0.00000000       0.00000000     -78.81588745
Rh       0.00000000       0.00000000       0.87474747       0.00000000       0.00000000      78.81588745
2
Properties=species:S:1:pos:R:3:forces:R:3 energy=-0.08230496471880464 pbc="F F F"
Rh       0.00000000       0.00000000       0.00000000       0.00000000       0.00000000     -39.47243500
Rh       0.00000000       0.00000000       0.93434343       0.00000000       0.00000000      39.47243500
2
Properties=species:S:1:pos:R:3:forces:R:3 energy=-2.2016324259375333 pbc="F F F"
Rh       0.00000000       0.00000000       0.00000000       0.00000000       0.00000000     -36.14661407
Rh       0.00000000       0.00000000       0.99393939       0.00000000       0.00000000      36.14661407
2
Properties=species:S:1:pos:R:3:forces:R:3 energy=-4.428259663333363 pbc="F F F"
Rh       0.00000000       0.00000000       0.00000000       0.00000000       0.00000000     -35.35072327
Rh       0.00000000       0.00000000       1.05353535       0.00000000       0.00000000      35.35072327
2
Properties=species:S:1:pos:R:3:forces:R:3 energy=-7.09232963908852 pbc="F F F"
Rh       0.00000000       0.00000000       0.00000000       0.00000000       0.00000000     -70.84296417
Rh       0.00000000       0.00000000       1.11313131       0.00000000       0.00000000      70.84296417
2
Properties=species:S:1:pos:R:3:forces:R:3 energy=-10.718445240049832 pbc="F F F"
Rh       0.00000000       0.00000000       0.00000000       0.00000000       0.00000000     -38.96529388
Rh       0.00000000       0.00000000       1.17272727       0.00000000       0.00000000      38.96529388
2
Properties=species:S:1:pos:R:3:forces:R:3 energy=-12.068794409725768 pbc="F F F"
Rh       0.00000000       0.00000000       0.00000000       0.00000000       0.00000000     -13.10589218
Rh       0.00000000       0.00000000       1.23232323       0.00000000       0.00000000      13.10589218
2
Properties=species:S:1:pos:R:3:forces:R:3 energy=-13.012088605418748 pbc="F F F"
Rh       0.00000000       0.00000000       0.00000000       0.00000000       0.00000000     -21.80538177
Rh       0.00000000       0.00000000       1.29191919       0.00000000       0.00000000      21.80538177
2
Properties=species:S:1:pos:R:3:forces:R:3 energy=-14.642741571781704 pbc="F F F"
Rh       0.00000000       0.00000000       0.00000000       0.00000000       0.00000000     -30.67506790
Rh       0.00000000       0.00000000       1.35151515       0.00000000       0.00000000      30.67506790
2
Properties=species:S:1:pos:R:3:forces:R:3 energy=-16.616146888687656 pbc="F F F"
Rh       0.00000000       0.00000000       0.00000000       0.00000000       0.00000000     -38.92230988
Rh       0.00000000       0.00000000       1.41111111       0.00000000       0.00000000      38.92230988
2
Properties=species:S:1:pos:R:3:forces:R:3 energy=-19.701358949971468 pbc="F F F"
Rh       0.00000000       0.00000000       0.00000000       0.00000000       0.00000000     -63.43606567
Rh       0.00000000       0.00000000       1.47070707       0.00000000       0.00000000      63.43606567
2
Properties=species:S:1:pos:R:3:forces:R:3 energy=-23.66466649711825 pbc="F F F"
Rh       0.00000000       0.00000000       0.00000000       0.00000000       0.00000000     -65.98226166
Rh       0.00000000       0.00000000       1.53030303       0.00000000       0.00000000      65.98226166
2
Properties=species:S:1:pos:R:3:forces:R:3 energy=-27.368528687524684 pbc="F F F"
Rh       0.00000000       0.00000000       0.00000000       0.00000000       0.00000000     -57.86326218
Rh       0.00000000       0.00000000       1.58989899       0.00000000       0.00000000      57.86326218
2
Properties=species:S:1:pos:R:3:forces:R:3 energy=-30.555979872896355 pbc="F F F"
Rh       0.00000000       0.00000000       0.00000000       0.00000000       0.00000000     -49.21549225
Rh       0.00000000       0.00000000       1.64949495       0.00000000       0.00000000      49.21549225
2
Properties=species:S:1:pos:R:3:forces:R:3 energy=-33.246597093855655 pbc="F F F"
Rh       0.00000000       0.00000000       0.00000000       0.00000000       0.00000000     -41.15291214
Rh       0.00000000       0.00000000       1.70909091       0.00000000       0.00000000      41.15291214
2
Properties=species:S:1:pos:R:3:forces:R:3 energy=-35.470236138740624 pbc="F F F"
Rh       0.00000000       0.00000000       0.00000000       0.00000000       0.00000000     -33.57375717
Rh       0.00000000       0.00000000       1.76868687       0.00000000       0.00000000      33.57375717
2
Properties=species:S:1:pos:R:3:forces:R:3 energy=-37.26448149292668 pbc="F F F"
Rh       0.00000000       0.00000000       0.00000000       0.00000000       0.00000000     -26.79535484
Rh       0.00000000       0.00000000       1.82828283       0.00000000       0.00000000      26.79535484
2
Properties=species:S:1:pos:R:3:forces:R:3 energy=-38.68083576750352 pbc="F F F"
Rh       0.00000000       0.00000000       0.00000000       0.00000000       0.00000000     -20.84233284
Rh       0.00000000       0.00000000       1.88787879       0.00000000       0.00000000      20.84233284
2
Properties=species:S:1:pos:R:3:forces:R:3 energy=-39.75606962928959 pbc="F F F"
Rh       0.00000000       0.00000000       0.00000000       0.00000000       0.00000000     -15.27140522
Rh       0.00000000       0.00000000       1.94747475       0.00000000       0.00000000      15.27140522
2
Properties=species:S:1:pos:R:3:forces:R:3 energy=-40.50466513580685 pbc="F F F"
Rh       0.00000000       0.00000000       0.00000000       0.00000000       0.00000000      -9.90262985
Rh       0.00000000       0.00000000       2.00707071       0.00000000       0.00000000       9.90262985
2
Properties=species:S:1:pos:R:3:forces:R:3 energy=-40.9472395498746 pbc="F F F"
Rh       0.00000000       0.00000000       0.00000000       0.00000000       0.00000000      -5.08167124
Rh       0.00000000       0.00000000       2.06666667       0.00000000       0.00000000       5.08167124
2
Properties=species:S:1:pos:R:3:forces:R:3 energy=-41.13006201665388 pbc="F F F"
Rh       0.00000000       0.00000000       0.00000000       0.00000000       0.00000000      -1.24517393
Rh       0.00000000       0.00000000       2.12626263       0.00000000       0.00000000       1.24517393
2
Properties=species:S:1:pos:R:3:forces:R:3 energy=-41.12005740787988 pbc="F F F"
Rh       0.00000000       0.00000000       0.00000000       0.00000000       0.00000000       1.37194407
Rh       0.00000000       0.00000000       2.18585859       0.00000000       0.00000000      -1.37194407
2
Properties=species:S:1:pos:R:3:forces:R:3 energy=-40.99004122849689 pbc="F F F"
Rh       0.00000000       0.00000000       0.00000000       0.00000000       0.00000000       2.81764388
Rh       0.00000000       0.00000000       2.24545455       0.00000000       0.00000000      -2.81764388
2
Properties=species:S:1:pos:R:3:forces:R:3 energy=-40.80044964647559 pbc="F F F"
Rh       0.00000000       0.00000000       0.00000000       0.00000000       0.00000000       3.44914150
Rh       0.00000000       0.00000000       2.30505051       0.00000000       0.00000000      -3.44914150
2
Properties=species:S:1:pos:R:3:forces:R:3 energy=-40.58652581952022 pbc="F F F"
Rh       0.00000000       0.00000000       0.00000000       0.00000000       0.00000000       3.68641663
Rh       0.00000000       0.00000000       2.36464646       0.00000000       0.00000000      -3.68641663
2
Properties=species:S:1:pos:R:3:forces:R:3 energy=-40.3656380043393 pbc="F F F"
Rh       0.00000000       0.00000000       0.00000000       0.00000000       0.00000000       3.69097638
Rh       0.00000000       0.00000000       2.42424242       0.00000000       0.00000000      -3.69097638
2
Properties=species:S:1:pos:R:3:forces:R:3 energy=-40.1495311259495 pbc="F F F"
Rh       0.00000000       0.00000000       0.00000000       0.00000000       0.00000000       3.55566287
Rh       0.00000000       0.00000000       2.48383838       0.00000000       0.00000000      -3.55566287
2
Properties=species:S:1:pos:R:3:forces:R:3 energy=-39.93971616134152 pbc="F F F"
Rh       0.00000000       0.00000000       0.00000000       0.00000000       0.00000000       3.52217150
Rh       0.00000000       0.00000000       2.54343434       0.00000000       0.00000000      -3.52217150
2
Properties=species:S:1:pos:R:3:forces:R:3 energy=-39.7249031061219 pbc="F F F"
Rh       0.00000000       0.00000000       0.00000000       0.00000000       0.00000000       3.71964097
Rh       0.00000000       0.00000000       2.60303030       0.00000000       0.00000000      -3.71964097
2
Properties=species:S:1:pos:R:3:forces:R:3 energy=-39.49477661690528 pbc="F F F"
Rh       0.00000000       0.00000000       0.00000000       0.00000000       0.00000000       3.99427581
Rh       0.00000000       0.00000000       2.66262626       0.00000000       0.00000000      -3.99427581
2
Properties=species:S:1:pos:R:3:forces:R:3 energy=-39.252066272177395 pbc="F F F"
Rh       0.00000000       0.00000000       0.00000000       0.00000000       0.00000000       4.11199093
Rh       0.00000000       0.00000000       2.72222222       0.00000000       0.00000000      -4.11199093
2
Properties=species:S:1:pos:R:3:forces:R:3 energy=-39.00939145135118 pbc="F F F"
Rh       0.00000000       0.00000000       0.00000000       0.00000000       0.00000000       3.99776745
Rh       0.00000000       0.00000000       2.78181818       0.00000000       0.00000000      -3.99776745
2
Properties=species:S:1:pos:R:3:forces:R:3 energy=-38.77843248948372 pbc="F F F"
Rh       0.00000000       0.00000000       0.00000000       0.00000000       0.00000000       3.73870516
Rh       0.00000000       0.00000000       2.84141414       0.00000000       0.00000000      -3.73870516
2
Properties=species:S:1:pos:R:3:forces:R:3 energy=-38.56482286109488 pbc="F F F"
Rh       0.00000000       0.00000000       0.00000000       0.00000000       0.00000000       3.42299199
Rh       0.00000000       0.00000000       2.90101010       0.00000000       0.00000000      -3.42299199
2
Properties=species:S:1:pos:R:3:forces:R:3 energy=-38.37150398222525 pbc="F F F"
Rh       0.00000000       0.00000000       0.00000000       0.00000000       0.00000000       3.05310535
Rh       0.00000000       0.00000000       2.96060606       0.00000000       0.00000000      -3.05310535
2
Properties=species:S:1:pos:R:3:forces:R:3 energy=-38.202415490934975 pbc="F F F"
Rh       0.00000000       0.00000000       0.00000000       0.00000000       0.00000000       2.61003566
Rh       0.00000000       0.00000000       3.02020202       0.00000000       0.00000000      -2.61003566
2
Properties=species:S:1:pos:R:3:forces:R:3 energy=-38.06121827120377 pbc="F F F"
Rh       0.00000000       0.00000000       0.00000000       0.00000000       0.00000000       2.12750912
Rh       0.00000000       0.00000000       3.07979798       0.00000000       0.00000000      -2.12750912
2
Properties=species:S:1:pos:R:3:forces:R:3 energy=-37.9481842378716 pbc="F F F"
Rh       0.00000000       0.00000000       0.00000000       0.00000000       0.00000000       1.67684698
Rh       0.00000000       0.00000000       3.13939394       0.00000000       0.00000000      -1.67684698
2
Properties=species:S:1:pos:R:3:forces:R:3 energy=-37.859609883126495 pbc="F F F"
Rh       0.00000000       0.00000000       0.00000000       0.00000000       0.00000000       1.31243193
Rh       0.00000000       0.00000000       3.19898990       0.00000000       0.00000000      -1.31243193
2
Properties=species:S:1:pos:R:3:forces:R:3 energy=-37.78972828753213 pbc="F F F"
Rh       0.00000000       0.00000000       0.00000000       0.00000000       0.00000000       1.04914868
Rh       0.00000000       0.00000000       3.25858586       0.00000000       0.00000000      -1.04914868
2
Properties=species:S:1:pos:R:3:forces:R:3 energy=-37.73276776027264 pbc="F F F"
Rh       0.00000000       0.00000000       0.00000000       0.00000000       0.00000000       0.87580597
Rh       0.00000000       0.00000000       3.31818182       0.00000000       0.00000000      -0.87580597
2
Properties=species:S:1:pos:R:3:forces:R:3 energy=-37.683936670947205 pbc="F F F"
Rh       0.00000000       0.00000000       0.00000000       0.00000000       0.00000000       0.77307695
Rh       0.00000000       0.00000000       3.37777778       0.00000000       0.00000000      -0.77307695
2
Properties=species:S:1:pos:R:3:forces:R:3 energy=-37.63961824622074 pbc="F F F"
Rh       0.00000000       0.00000000       0.00000000       0.00000000       0.00000000       0.72110277
Rh       0.00000000       0.00000000       3.43737374       0.00000000       0.00000000      -0.72110277
2
Properties=species:S:1:pos:R:3:forces:R:3 energy=-37.59733625813934 pbc="F F F"
Rh       0.00000000       0.00000000       0.00000000       0.00000000       0.00000000       0.70197290
Rh       0.00000000       0.00000000       3.49696970       0.00000000       0.00000000      -0.70197290
2
Properties=species:S:1:pos:R:3:forces:R:3 energy=-37.55557576662091 pbc="F F F"
Rh       0.00000000       0.00000000       0.00000000       0.00000000       0.00000000       0.70173109
Rh       0.00000000       0.00000000       3.55656566       0.00000000       0.00000000      -0.70173109
2
Properties=species:S:1:pos:R:3:forces:R:3 energy=-37.51350847075553 pbc="F F F"
Rh       0.00000000       0.00000000       0.00000000       0.00000000       0.00000000       0.71097833
Rh       0.00000000       0.00000000       3.61616162       0.00000000       0.00000000      -0.71097833
2
Properties=species:S:1:pos:R:3:forces:R:3 energy=-37.4707638238017 pbc="F F F"
Rh       0.00000000       0.00000000       0.00000000       0.00000000       0.00000000       0.72380531
Rh       0.00000000       0.00000000       3.67575758       0.00000000       0.00000000      -0.72380531
2
Properties=species:S:1:pos:R:3:forces:R:3 energy=-37.42723832208169 pbc="F F F"
Rh       0.00000000       0.00000000       0.00000000       0.00000000       0.00000000       0.73665994
Rh       0.00000000       0.00000000       3.73535354       0.00000000       0.00000000      -0.73665994
2
Properties=species:S:1:pos:R:3:forces:R:3 energy=-37.382996299094025 pbc="F F F"
Rh       0.00000000       0.00000000       0.00000000       0.00000000       0.00000000       0.74772298
Rh       0.00000000       0.00000000       3.79494949       0.00000000       0.00000000      -0.74772298
2
Properties=species:S:1:pos:R:3:forces:R:3 energy=-37.338163148836024 pbc="F F F"
Rh       0.00000000       0.00000000       0.00000000       0.00000000       0.00000000       0.75631553
Rh       0.00000000       0.00000000       3.85454545       0.00000000       0.00000000      -0.75631553
2
Properties=species:S:1:pos:R:3:forces:R:3 energy=-37.29290242653288 pbc="F F F"
Rh       0.00000000       0.00000000       0.00000000       0.00000000       0.00000000       0.76214498
Rh       0.00000000       0.00000000       3.91414141       0.00000000       0.00000000      -0.76214498
2
Properties=species:S:1:pos:R:3:forces:R:3 energy=-37.24738916001198 pbc="F F F"
Rh       0.00000000       0.00000000       0.00000000       0.00000000       0.00000000       0.76469201
Rh       0.00000000       0.00000000       3.97373737       0.00000000       0.00000000      -0.76469201
2
Properties=species:S:1:pos:R:3:forces:R:3 energy=-37.201844177226555 pbc="F F F"
Rh       0.00000000       0.00000000       0.00000000       0.00000000       0.00000000       0.76295662
Rh       0.00000000       0.00000000       4.03333333       0.00000000       0.00000000      -0.76295662
2
Properties=species:S:1:pos:R:3:forces:R:3 energy=-37.15656084715042 pbc="F F F"
Rh       0.00000000       0.00000000       0.00000000       0.00000000       0.00000000       0.75559139
Rh       0.00000000       0.00000000       4.09292929       0.00000000       0.00000000      -0.75559139
2
Properties=species:S:1:pos:R:3:forces:R:3 energy=-37.11192029738536 pbc="F F F"
Rh       0.00000000       0.00000000       0.00000000       0.00000000       0.00000000       0.74127090
Rh       0.00000000       0.00000000       4.15252525       0.00000000       0.00000000      -0.74127090
2
Properties=species:S:1:pos:R:3:forces:R:3 energy=-37.06836476671712 pbc="F F F"
Rh       0.00000000       0.00000000       0.00000000       0.00000000       0.00000000       0.71921676
Rh       0.00000000       0.00000000       4.21212121       0.00000000       0.00000000      -0.71921676
2
Properties=species:S:1:pos:R:3:forces:R:3 energy=-37.02634417876287 pbc="F F F"
Rh       0.00000000       0.00000000       0.00000000       0.00000000       0.00000000       0.68966401
Rh       0.00000000       0.00000000       4.27171717       0.00000000       0.00000000      -0.68966401
2
Properties=species:S:1:pos:R:3:forces:R:3 energy=-36.98628182870274 pbc="F F F"
Rh       0.00000000       0.00000000       0.00000000       0.00000000       0.00000000       0.65407324
Rh       0.00000000       0.00000000       4.33131313       0.00000000       0.00000000      -0.65407324
2
Properties=species:S:1:pos:R:3:forces:R:3 energy=-36.948456132416325 pbc="F F F"
Rh       0.00000000       0.00000000       0.00000000       0.00000000       0.00000000       0.61500841
Rh       0.00000000       0.00000000       4.39090909       0.00000000       0.00000000      -0.61500841
2
Properties=species:S:1:pos:R:3:forces:R:3 energy=-36.91298156725155 pbc="F F F"
Rh       0.00000000       0.00000000       0.00000000       0.00000000       0.00000000       0.57563138
Rh       0.00000000       0.00000000       4.45050505       0.00000000       0.00000000      -0.57563138
2
Properties=species:S:1:pos:R:3:forces:R:3 energy=-36.879789596954424 pbc="F F F"
Rh       0.00000000       0.00000000       0.00000000       0.00000000       0.00000000       0.53893882
Rh       0.00000000       0.00000000       4.51010101       0.00000000       0.00000000      -0.53893882
2
Properties=species:S:1:pos:R:3:forces:R:3 energy=-36.848651555100915 pbc="F F F"
Rh       0.00000000       0.00000000       0.00000000       0.00000000       0.00000000       0.50700140
Rh       0.00000000       0.00000000       4.56969697       0.00000000       0.00000000      -0.50700140
2
Properties=species:S:1:pos:R:3:forces:R:3 energy=-36.81925117344625 pbc="F F F"
Rh       0.00000000       0.00000000       0.00000000       0.00000000       0.00000000       0.48039997
Rh       0.00000000       0.00000000       4.62929293       0.00000000       0.00000000      -0.48039997
2
Properties=species:S:1:pos:R:3:forces:R:3 energy=-36.79130659204875 pbc="F F F"
Rh       0.00000000       0.00000000       0.00000000       0.00000000       0.00000000       0.45805693
Rh       0.00000000       0.00000000       4.68888889       0.00000000       0.00000000      -0.45805693
2
Properties=species:S:1:pos:R:3:forces:R:3 energy=-36.76462000735512 pbc="F F F"
Rh       0.00000000       0.00000000       0.00000000       0.00000000       0.00000000       0.43748999
Rh       0.00000000       0.00000000       4.74848485       0.00000000       0.00000000      -0.43748999
2
Properties=species:S:1:pos:R:3:forces:R:3 energy=-36.73918825565555 pbc="F F F"
Rh       0.00000000       0.00000000       0.00000000       0.00000000       0.00000000       0.41549772
Rh       0.00000000       0.00000000       4.80808081       0.00000000       0.00000000      -0.41549772
2
Properties=species:S:1:pos:R:3:forces:R:3 energy=-36.715187579637224 pbc="F F F"
Rh       0.00000000       0.00000000       0.00000000       0.00000000       0.00000000       0.38902470
Rh       0.00000000       0.00000000       4.86767677       0.00000000       0.00000000      -0.38902470
2
Properties=species:S:1:pos:R:3:forces:R:3 energy=-36.69295073069725 pbc="F F F"
Rh       0.00000000       0.00000000       0.00000000       0.00000000       0.00000000       0.35596833
Rh       0.00000000       0.00000000       4.92727273       0.00000000       0.00000000      -0.35596833
2
Properties=species:S:1:pos:R:3:forces:R:3 energy=-36.6729020984983 pbc="F F F"
Rh       0.00000000       0.00000000       0.00000000       0.00000000       0.00000000       0.31570151
Rh       0.00000000       0.00000000       4.98686869       0.00000000       0.00000000      -0.31570151
2
Properties=species:S:1:pos:R:3:forces:R:3 energy=-36.65545091370041 pbc="F F F"
Rh       0.00000000       0.00000000       0.00000000       0.00000000       0.00000000       0.26915172
Rh       0.00000000       0.00000000       5.04646465       0.00000000       0.00000000      -0.26915172
2
Properties=species:S:1:pos:R:3:forces:R:3 energy=-36.640903467158225 pbc="F F F"
Rh       0.00000000       0.00000000       0.00000000       0.00000000       0.00000000       0.21853322
Rh       0.00000000       0.00000000       5.10606061       0.00000000       0.00000000      -0.21853322
2
Properties=species:S:1:pos:R:3:forces:R:3 energy=-36.62942116409019 pbc="F F F"
Rh       0.00000000       0.00000000       0.00000000       0.00000000       0.00000000       0.16690923
Rh       0.00000000       0.00000000       5.16565657       0.00000000       0.00000000      -0.16690923
2
Properties=species:S:1:pos:R:3:forces:R:3 energy=-36.620959465163686 pbc="F F F"
Rh       0.00000000       0.00000000       0.00000000       0.00000000       0.00000000       0.11775476
Rh       0.00000000       0.00000000       5.22525253       0.00000000       0.00000000      -0.11775476
2
Properties=species:S:1:pos:R:3:forces:R:3 energy=-36.615271675849655 pbc="F F F"
Rh       0.00000000       0.00000000       0.00000000       0.00000000       0.00000000       0.07436911
Rh       0.00000000       0.00000000       5.28484848       0.00000000       0.00000000      -0.07436911
2
Properties=species:S:1:pos:R:3:forces:R:3 energy=-36.61192801990896 pbc="F F F"
Rh       0.00000000       0.00000000       0.00000000       0.00000000       0.00000000       0.03932348
Rh       0.00000000       0.00000000       5.34444444       0.00000000       0.00000000      -0.03932348
2
Properties=species:S:1:pos:R:3:forces:R:3 energy=-36.61038427384885 pbc="F F F"
Rh       0.00000000       0.00000000       0.00000000       0.00000000       0.00000000       0.01427280
Rh       0.00000000       0.00000000       5.40404040       0.00000000       0.00000000      -0.01427280
2
Properties=species:S:1:pos:R:3:forces:R:3 energy=-36.61000083961734 pbc="F F F"
Rh       0.00000000       0.00000000       0.00000000       0.00000000       0.00000000       0.00061289
Rh       0.00000000       0.00000000       5.46363636       0.00000000       0.00000000      -0.00061289
2
Properties=species:S:1:pos:R:3:forces:R:3 energy=-36.61008848691631 pbc="F F F"
Rh       0.00000000       0.00000000       0.00000000       0.00000000       0.00000000      -0.00217996
Rh       0.00000000       0.00000000       5.52323232       0.00000000       0.00000000       0.00217996
2
Properties=species:S:1:pos:R:3:forces:R:3 energy=-36.610179204626895 pbc="F F F"
Rh       0.00000000       0.00000000       0.00000000       0.00000000       0.00000000      -0.00088495
Rh       0.00000000       0.00000000       5.58282828       0.00000000       0.00000000       0.00088495
2
Properties=species:S:1:pos:R:3:forces:R:3 energy=-36.61024741365314 pbc="F F F"
Rh       0.00000000       0.00000000       0.00000000       0.00000000       0.00000000      -0.00184748
Rh       0.00000000       0.00000000       5.64242424       0.00000000       0.00000000       0.00184748
2
Properties=species:S:1:pos:R:3:forces:R:3 energy=-36.61039717758534 pbc="F F F"
Rh       0.00000000       0.00000000       0.00000000       0.00000000       0.00000000      -0.00254265
Rh       0.00000000       0.00000000       5.70202020       0.00000000       0.00000000       0.00254265
2
Properties=species:S:1:pos:R:3:forces:R:3 energy=-36.61044637535546 pbc="F F F"
Rh       0.00000000       0.00000000       0.00000000       0.00000000       0.00000000       0.00157769
Rh       0.00000000       0.00000000       5.76161616       0.00000000       0.00000000      -0.00157769
2
Properties=species:S:1:pos:R:3:forces:R:3 energy=-36.610193722126226 pbc="F F F"
Rh       0.00000000       0.00000000       0.00000000       0.00000000       0.00000000       0.00641905
Rh       0.00000000       0.00000000       5.82121212       0.00000000       0.00000000      -0.00641905
2
Properties=species:S:1:pos:R:3:forces:R:3 energy=-36.60976209838066 pbc="F F F"
Rh       0.00000000       0.00000000       0.00000000       0.00000000       0.00000000       0.00749982
Rh       0.00000000       0.00000000       5.88080808       0.00000000       0.00000000      -0.00749982
2
Properties=species:S:1:pos:R:3:forces:R:3 energy=-36.6093353223475 pbc="F F F"
Rh       0.00000000       0.00000000       0.00000000       0.00000000       0.00000000       0.00674437
Rh       0.00000000       0.00000000       5.94040404       0.00000000       0.00000000      -0.00674437
2
Properties=species:S:1:pos:R:3:forces:R:3 energy=-36.60895215793275 pbc="F F F"
Rh       0.00000000       0.00000000       0.00000000       0.00000000       0.00000000       0.00622038
Rh       0.00000000       0.00000000       6.00000000       0.00000000       0.00000000      -0.00622038
