2
Properties=species:S:1:pos:R:3:forces:R:3 energy=-159669.51306996218 pbc="F F F"
Ru       0.00000000       0.00000000       0.00000000       0.00000000       0.00000000 -813686.87500000
Ru       0.00000000       0.00000000       0.10000000       0.00000000       0.00000000  813686.87500000
2
Properties=species:S:1:pos:R:3:forces:R:3 energy=-182837.43494496218 pbc="F F F"
Ru       0.00000000       0.00000000       0.00000000       0.00000000       0.00000000 -146118.85937500
Ru       0.00000000       0.00000000       0.15959596       0.00000000       0.00000000  146118.85937500
2
Properties=species:S:1:pos:R:3:forces:R:3 energy=-185125.60681996218 pbc="F F F"
Ru       0.00000000       0.00000000       0.00000000       0.00000000       0.00000000   50592.37500000
Ru       0.00000000       0.00000000       0.21919192       0.00000000       0.00000000  -50592.37500000
2
Properties=species:S:1:pos:R:3:forces:R:3 energy=-177213.71619496218 pbc="F F F"
Ru       0.00000000       0.00000000       0.00000000       0.00000000       0.00000000  219060.57812500
Ru       0.00000000       0.00000000       0.27878788       0.00000000       0.00000000 -219060.57812500
2
Properties=species:S:1:pos:R:3:forces:R:3 energy=-158368.7630699614 pbc="F F F"
Ru       0.00000000       0.00000000       0.00000000       0.00000000       0.00000000  417237.62500000
Ru       0.00000000       0.00000000       0.33838384       0.00000000       0.00000000 -417237.62500000
2
Properties=species:S:1:pos:R:3:forces:R:3 energy=-127698.33338246138 pbc="F F F"
Ru       0.00000000       0.00000000       0.00000000       0.00000000       0.00000000  602632.12500000
Ru       0.00000000       0.00000000       0.39797980       0.00000000       0.00000000 -602632.12500000
2
Properties=species:S:1:pos:R:3:forces:R:3 energy=-88737.6146324598 pbc="F F F"
Ru       0.00000000       0.00000000       0.00000000       0.00000000       0.00000000  678200.25000000
Ru       0.00000000       0.00000000       0.45757576       0.00000000       0.00000000 -678200.25000000
2
Properties=species:S:1:pos:R:3:forces:R:3 energy=-50459.720101208215 pbc="F F F"
Ru       0.00000000       0.00000000       0.00000000       0.00000000       0.00000000  577585.68750000
Ru       0.00000000       0.00000000       0.51717172       0.00000000       0.00000000 -577585.68750000
2
Properties=species:S:1:pos:R:3:forces:R:3 energy=-22269.727913704257 pbc="F F F"
Ru       0.00000000       0.00000000       0.00000000       0.00000000       0.00000000  360506.21875000
Ru       0.00000000       0.00000000       0.57676768       0.00000000       0.00000000 -360506.21875000
2
Properties=species:S:1:pos:R:3:forces:R:3 energy=-5241.01697619713 pbc="F F F"
Ru       0.00000000       0.00000000       0.00000000       0.00000000       0.00000000  169240.64062500
Ru       0.00000000       0.00000000       0.63636364       0.00000000       0.00000000 -169240.64062500
2
Properties=species:S:1:pos:R:3:forces:R:3 energy=-742.1869590954067 pbc="F F F"
Ru       0.00000000       0.00000000       0.00000000       0.00000000       0.00000000   23110.64062500
Ru       0.00000000       0.00000000       0.69595960       0.00000000       0.00000000  -23110.64062500
2
Properties=species:S:1:pos:R:3:forces:R:3 energy=-62.33230667319854 pbc="F F F"
Ru       0.00000000       0.00000000       0.00000000       0.00000000       0.00000000   14974.58789062
Ru       0.00000000       0.00000000       0.75555556       0.00000000       0.00000000  -14974.58789062
2
Properties=species:S:1:pos:R:3:forces:R:3 energy=-25.551461007350024 pbc="F F F"
Ru       0.00000000       0.00000000       0.00000000       0.00000000       0.00000000    -885.94134521
Ru       0.00000000       0.00000000       0.81515152       0.00000000       0.00000000     885.94134521
2
Properties=species:S:1:pos:R:3:forces:R:3 energy=-60.83783792404507 pbc="F F F"
Ru       0.00000000       0.00000000       0.00000000       0.00000000       0.00000000    -479.44641113
Ru       0.00000000       0.00000000       0.87474747       0.00000000       0.00000000     479.44641113
2
Properties=species:S:1:pos:R:3:forces:R:3 energy=-88.9678656427721 pbc="F F F"
Ru       0.00000000       0.00000000       0.00000000       0.00000000       0.00000000    -247.34350586
Ru       0.00000000       0.00000000       0.93434343       0.00000000       0.00000000     247.34350586
2
Properties=species:S:1:pos:R:3:forces:R:3 energy=-97.17168484639845 pbc="F F F"
Ru       0.00000000       0.00000000       0.00000000       0.00000000       0.00000000     -18.51752853
Ru       0.00000000       0.00000000       0.99393939       0.00000000       0.00000000      18.51752853
2
Properties=species:S:1:pos:R:3:forces:R:3 energy=-94.75640154665487 pbc="F F F"
Ru       0.00000000       0.00000000       0.00000000       0.00000000       0.00000000      63.85525513
Ru       0.00000000       0.00000000       1.05353535       0.00000000       0.00000000     -63.85525513
2
Properties=species:S:1:pos:R:3:forces:R:3 energy=-89.44898259669979 pbc="F F F"
Ru       0.00000000       0.00000000       0.00000000       0.00000000       0.00000000     119.41210938
Ru       0.00000000       0.00000000       1.11313131       0.00000000       0.00000000    -119.41210938
2
Properties=species:S:1:pos:R:3:forces:R:3 energy=-80.60445423056304 pbc="F F F"
Ru       0.00000000       0.00000000       0.00000000       0.00000000       0.00000000     173.90652466
Ru       0.00000000       0.00000000       1.17272727       0.00000000       0.00000000    -173.90652466
2
Properties=species:S:1:pos:R:3:forces:R:3 energy=-69.1353606892294 pbc="F F F"
Ru       0.00000000       0.00000000       0.00000000       0.00000000       0.00000000     205.00985718
Ru       0.00000000       0.00000000       1.23232323       0.00000000       0.00000000    -205.00985718
2
Properties=species:S:1:pos:R:3:forces:R:3 energy=-57.135078124447304 pbc="F F F"
Ru       0.00000000       0.00000000       0.00000000       0.00000000       0.00000000     191.47180176
Ru       0.00000000       0.00000000       1.29191919       0.00000000       0.00000000    -191.47180176
2
Properties=species:S:1:pos:R:3:forces:R:3 energy=-46.05064707823897 pbc="F F F"
Ru       0.00000000       0.00000000       0.00000000       0.00000000       0.00000000     182.15516663
Ru       0.00000000       0.00000000       1.35151515       0.00000000       0.00000000    -182.15516663
2
Properties=species:S:1:pos:R:3:forces:R:3 energy=-37.593241548371616 pbc="F F F"
Ru       0.00000000       0.00000000       0.00000000       0.00000000       0.00000000      89.11877441
Ru       0.00000000       0.00000000       1.41111111       0.00000000       0.00000000     -89.11877441
2
Properties=species:S:1:pos:R:3:forces:R:3 energy=-34.5320227409955 pbc="F F F"
Ru       0.00000000       0.00000000       0.00000000       0.00000000       0.00000000      21.76592827
Ru       0.00000000       0.00000000       1.47070707       0.00000000       0.00000000     -21.76592827
2
Properties=species:S:1:pos:R:3:forces:R:3 energy=-34.31255490949909 pbc="F F F"
Ru       0.00000000       0.00000000       0.00000000       0.00000000       0.00000000      -8.77784443
Ru       0.00000000       0.00000000       1.53030303       0.00000000       0.00000000       8.77784443
2
Properties=species:S:1:pos:R:3:forces:R:3 energy=-35.08997032699271 pbc="F F F"
Ru       0.00000000       0.00000000       0.00000000       0.00000000       0.00000000     -15.88759232
Ru       0.00000000       0.00000000       1.58989899       0.00000000       0.00000000      15.88759232
2
Properties=species:S:1:pos:R:3:forces:R:3 energy=-36.20623751163834 pbc="F F F"
Ru       0.00000000       0.00000000       0.00000000       0.00000000       0.00000000     -21.20695686
Ru       0.00000000       0.00000000       1.64949495       0.00000000       0.00000000      21.20695686
2
Properties=species:S:1:pos:R:3:forces:R:3 energy=-37.47574473303877 pbc="F F F"
Ru       0.00000000       0.00000000       0.00000000       0.00000000       0.00000000     -20.31195831
Ru       0.00000000       0.00000000       1.70909091       0.00000000       0.00000000      20.31195831
2
Properties=species:S:1:pos:R:3:forces:R:3 energy=-38.58147540309476 pbc="F F F"
Ru       0.00000000       0.00000000       0.00000000       0.00000000       0.00000000     -16.81628036
Ru       0.00000000       0.00000000       1.76868687       0.00000000       0.00000000      16.81628036
2
Properties=species:S:1:pos:R:3:forces:R:3 energy=-39.483432487500465 pbc="F F F"
Ru       0.00000000       0.00000000       0.00000000       0.00000000       0.00000000     -13.44452572
Ru       0.00000000       0.00000000       1.82828283       0.00000000       0.00000000      13.44452572
2
Properties=species:S:1:pos:R:3:forces:R:3 energy=-40.185861902703664 pbc="F F F"
Ru       0.00000000       0.00000000       0.00000000       0.00000000       0.00000000     -10.19618607
Ru       0.00000000       0.00000000       1.88787879       0.00000000       0.00000000      10.19618607
2
Properties=species:S:1:pos:R:3:forces:R:3 energy=-40.71114864151143 pbc="F F F"
Ru       0.00000000       0.00000000       0.00000000       0.00000000       0.00000000      -7.54384661
Ru       0.00000000       0.00000000       1.94747475       0.00000000       0.00000000       7.54384661
2
Properties=species:S:1:pos:R:3:forces:R:3 energy=-41.095456692116926 pbc="F F F"
Ru       0.00000000       0.00000000       0.00000000       0.00000000       0.00000000      -5.41074562
Ru       0.00000000       0.00000000       2.00707071       0.00000000       0.00000000       5.41074562
2
Properties=species:S:1:pos:R:3:forces:R:3 energy=-41.360229659743325 pbc="F F F"
Ru       0.00000000       0.00000000       0.00000000       0.00000000       0.00000000      -3.49554586
Ru       0.00000000       0.00000000       2.06666667       0.00000000       0.00000000       3.49554586
2
Properties=species:S:1:pos:R:3:forces:R:3 energy=-41.514109892781654 pbc="F F F"
Ru       0.00000000       0.00000000       0.00000000       0.00000000       0.00000000      -1.68633473
Ru       0.00000000       0.00000000       2.12626263       0.00000000       0.00000000       1.68633473
2
Properties=species:S:1:pos:R:3:forces:R:3 energy=-41.563795618060354 pbc="F F F"
Ru       0.00000000       0.00000000       0.00000000       0.00000000       0.00000000      -0.00678945
Ru       0.00000000       0.00000000       2.18585859       0.00000000       0.00000000       0.00678945
2
Properties=species:S:1:pos:R:3:forces:R:3 energy=-41.51913433226757 pbc="F F F"
Ru       0.00000000       0.00000000       0.00000000       0.00000000       0.00000000       1.45194483
Ru       0.00000000       0.00000000       2.24545455       0.00000000       0.00000000      -1.45194483
2
Properties=species:S:1:pos:R:3:forces:R:3 energy=-41.40078771114746 pbc="F F F"
Ru       0.00000000       0.00000000       0.00000000       0.00000000       0.00000000       2.40371156
Ru       0.00000000       0.00000000       2.30505051       0.00000000       0.00000000      -2.40371156
2
Properties=species:S:1:pos:R:3:forces:R:3 energy=-41.24815666809237 pbc="F F F"
Ru       0.00000000       0.00000000       0.00000000       0.00000000       0.00000000       2.59577417
Ru       0.00000000       0.00000000       2.36464646       0.00000000       0.00000000      -2.59577417
2
Properties=species:S:1:pos:R:3:forces:R:3 energy=-41.10123397933915 pbc="F F F"
Ru       0.00000000       0.00000000       0.00000000       0.00000000       0.00000000       2.30412817
Ru       0.00000000       0.00000000       2.42424242       0.00000000       0.00000000      -2.30412817
2
Properties=species:S:1:pos:R:3:forces:R:3 energy=-40.97166648880464 pbc="F F F"
Ru       0.00000000       0.00000000       0.00000000       0.00000000       0.00000000       2.09098315
Ru       0.00000000       0.00000000       2.48383838       0.00000000       0.00000000      -2.09098315
2
Properties=species:S:1:pos:R:3:forces:R:3 energy=-40.845520819192735 pbc="F F F"
Ru       0.00000000       0.00000000       0.00000000       0.00000000       0.00000000       2.19365406
Ru       0.00000000       0.00000000       2.54343434       0.00000000       0.00000000      -2.19365406
2
Properties=species:S:1:pos:R:3:forces:R:3 energy=-40.705150558780495 pbc="F F F"
Ru       0.00000000       0.00000000       0.00000000       0.00000000       0.00000000       2.54950476
Ru       0.00000000       0.00000000       2.60303030       0.00000000       0.00000000      -2.54950476
2
Properties=species:S:1:pos:R:3:forces:R:3 energy=-40.539570585075175 pbc="F F F"
Ru       0.00000000       0.00000000       0.00000000       0.00000000       0.00000000       3.00442433
Ru       0.00000000       0.00000000       2.66262626       0.00000000       0.00000000      -3.00442433
2
Properties=species:S:1:pos:R:3:forces:R:3 energy=-40.3499130995603 pbc="F F F"
Ru       0.00000000       0.00000000       0.00000000       0.00000000       0.00000000       3.32241130
Ru       0.00000000       0.00000000       2.72222222       0.00000000       0.00000000      -3.32241130
2
Properties=species:S:1:pos:R:3:forces:R:3 energy=-40.147616545880005 pbc="F F F"
Ru       0.00000000       0.00000000       0.00000000       0.00000000       0.00000000       3.44569278
Ru       0.00000000       0.00000000       2.78181818       0.00000000       0.00000000      -3.44569278
2
Properties=species:S:1:pos:R:3:forces:R:3 energy=-39.94001373043168 pbc="F F F"
Ru       0.00000000       0.00000000       0.00000000       0.00000000       0.00000000       3.52335072
Ru       0.00000000       0.00000000       2.84141414       0.00000000       0.00000000      -3.52335072
2
Properties=species:S:1:pos:R:3:forces:R:3 energy=-39.72715044219544 pbc="F F F"
Ru       0.00000000       0.00000000       0.00000000       0.00000000       0.00000000       3.62560058
Ru       0.00000000       0.00000000       2.90101010       0.00000000       0.00000000      -3.62560058
2
Properties=species:S:1:pos:R:3:forces:R:3 energy=-39.507244389903036 pbc="F F F"
Ru       0.00000000       0.00000000       0.00000000       0.00000000       0.00000000       3.75702024
Ru       0.00000000       0.00000000       2.96060606       0.00000000       0.00000000      -3.75702024
2
Properties=species:S:1:pos:R:3:forces:R:3 energy=-39.279865704358095 pbc="F F F"
Ru       0.00000000       0.00000000       0.00000000       0.00000000       0.00000000       3.86026454
Ru       0.00000000       0.00000000       3.02020202       0.00000000       0.00000000      -3.86026454
2
Properties=species:S:1:pos:R:3:forces:R:3 energy=-39.049771895871785 pbc="F F F"
Ru       0.00000000       0.00000000       0.00000000       0.00000000       0.00000000       3.83286238
Ru       0.00000000       0.00000000       3.07979798       0.00000000       0.00000000      -3.83286238
2
Properties=species:S:1:pos:R:3:forces:R:3 energy=-38.826672523322 pbc="F F F"
Ru       0.00000000       0.00000000       0.00000000       0.00000000       0.00000000       3.62456393
Ru       0.00000000       0.00000000       3.13939394       0.00000000       0.00000000      -3.62456393
2
Properties=species:S:1:pos:R:3:forces:R:3 energy=-38.62066859398216 pbc="F F F"
Ru       0.00000000       0.00000000       0.00000000       0.00000000       0.00000000       3.27105141
Ru       0.00000000       0.00000000       3.19898990       0.00000000       0.00000000      -3.27105141
2
Properties=species:S:1:pos:R:3:forces:R:3 energy=-38.43800936125759 pbc="F F F"
Ru       0.00000000       0.00000000       0.00000000       0.00000000       0.00000000       2.85616279
Ru       0.00000000       0.00000000       3.25858586       0.00000000       0.00000000      -2.85616279
2
Properties=species:S:1:pos:R:3:forces:R:3 energy=-38.2798277775649 pbc="F F F"
Ru       0.00000000       0.00000000       0.00000000       0.00000000       0.00000000       2.46077704
Ru       0.00000000       0.00000000       3.31818182       0.00000000       0.00000000      -2.46077704
2
Properties=species:S:1:pos:R:3:forces:R:3 energy=-38.143296901972306 pbc="F F F"
Ru       0.00000000       0.00000000       0.00000000       0.00000000       0.00000000       2.13491416
Ru       0.00000000       0.00000000       3.37777778       0.00000000       0.00000000      -2.13491416
2
Properties=species:S:1:pos:R:3:forces:R:3 energy=-38.02362896629359 pbc="F F F"
Ru       0.00000000       0.00000000       0.00000000       0.00000000       0.00000000       1.89549148
Ru       0.00000000       0.00000000       3.43737374       0.00000000       0.00000000      -1.89549148
2
Properties=species:S:1:pos:R:3:forces:R:3 energy=-37.915772940713886 pbc="F F F"
Ru       0.00000000       0.00000000       0.00000000       0.00000000       0.00000000       1.73619616
Ru       0.00000000       0.00000000       3.49696970       0.00000000       0.00000000      -1.73619616
2
Properties=species:S:1:pos:R:3:forces:R:3 energy=-37.81545981152558 pbc="F F F"
Ru       0.00000000       0.00000000       0.00000000       0.00000000       0.00000000       1.63868093
Ru       0.00000000       0.00000000       3.55656566       0.00000000       0.00000000      -1.63868093
2
Properties=species:S:1:pos:R:3:forces:R:3 energy=-37.71969464856521 pbc="F F F"
Ru       0.00000000       0.00000000       0.00000000       0.00000000       0.00000000       1.57926536
Ru       0.00000000       0.00000000       3.61616162       0.00000000       0.00000000      -1.57926536
2
Properties=species:S:1:pos:R:3:forces:R:3 energy=-37.62699314495432 pbc="F F F"
Ru       0.00000000       0.00000000       0.00000000       0.00000000       0.00000000       1.53136051
Ru       0.00000000       0.00000000       3.67575758       0.00000000       0.00000000      -1.53136051
2
Properties=species:S:1:pos:R:3:forces:R:3 energy=-37.537465534103674 pbc="F F F"
Ru       0.00000000       0.00000000       0.00000000       0.00000000       0.00000000       1.46877337
Ru       0.00000000       0.00000000       3.73535354       0.00000000       0.00000000      -1.46877337
2
Properties=species:S:1:pos:R:3:forces:R:3 energy=-37.45260677819581 pbc="F F F"
Ru       0.00000000       0.00000000       0.00000000       0.00000000       0.00000000       1.37256610
Ru       0.00000000       0.00000000       3.79494949       0.00000000       0.00000000      -1.37256610
2
Properties=species:S:1:pos:R:3:forces:R:3 energy=-37.37464428979865 pbc="F F F"
Ru       0.00000000       0.00000000       0.00000000       0.00000000       0.00000000       1.23775196
Ru       0.00000000       0.00000000       3.85454545       0.00000000       0.00000000      -1.23775196
2
Properties=species:S:1:pos:R:3:forces:R:3 energy=-37.30564906305314 pbc="F F F"
Ru       0.00000000       0.00000000       0.00000000       0.00000000       0.00000000       1.07437766
Ru       0.00000000       0.00000000       3.91414141       0.00000000       0.00000000      -1.07437766
2
Properties=species:S:1:pos:R:3:forces:R:3 energy=-37.24676514759114 pbc="F F F"
Ru       0.00000000       0.00000000       0.00000000       0.00000000       0.00000000       0.90209800
Ru       0.00000000       0.00000000       3.97373737       0.00000000       0.00000000      -0.90209800
2
Properties=species:S:1:pos:R:3:forces:R:3 energy=-37.19788158615454 pbc="F F F"
Ru       0.00000000       0.00000000       0.00000000       0.00000000       0.00000000       0.74204385
Ru       0.00000000       0.00000000       4.03333333       0.00000000       0.00000000      -0.74204385
2
Properties=species:S:1:pos:R:3:forces:R:3 energy=-37.15775065120353 pbc="F F F"
Ru       0.00000000       0.00000000       0.00000000       0.00000000       0.00000000       0.61035180
Ru       0.00000000       0.00000000       4.09292929       0.00000000       0.00000000      -0.61035180
2
Properties=species:S:1:pos:R:3:forces:R:3 energy=-37.124396042866614 pbc="F F F"
Ru       0.00000000       0.00000000       0.00000000       0.00000000       0.00000000       0.51542020
Ru       0.00000000       0.00000000       4.15252525       0.00000000       0.00000000      -0.51542020
2
Properties=species:S:1:pos:R:3:forces:R:3 energy=-37.09555921802414 pbc="F F F"
Ru       0.00000000       0.00000000       0.00000000       0.00000000       0.00000000       0.45837909
Ru       0.00000000       0.00000000       4.21212121       0.00000000       0.00000000      -0.45837909
2
Properties=species:S:1:pos:R:3:forces:R:3 energy=-37.06908466681261 pbc="F F F"
Ru       0.00000000       0.00000000       0.00000000       0.00000000       0.00000000       0.43518645
Ru       0.00000000       0.00000000       4.27171717       0.00000000       0.00000000      -0.43518645
2
Properties=species:S:1:pos:R:3:forces:R:3 energy=-37.04315261390955 pbc="F F F"
Ru       0.00000000       0.00000000       0.00000000       0.00000000       0.00000000       0.43896878
Ru       0.00000000       0.00000000       4.33131313       0.00000000       0.00000000      -0.43896878
2
Properties=species:S:1:pos:R:3:forces:R:3 energy=-37.016385855399584 pbc="F F F"
Ru       0.00000000       0.00000000       0.00000000       0.00000000       0.00000000       0.46181056
Ru       0.00000000       0.00000000       4.39090909       0.00000000       0.00000000      -0.46181056
2
Properties=species:S:1:pos:R:3:forces:R:3 energy=-36.98788790257925 pbc="F F F"
Ru       0.00000000       0.00000000       0.00000000       0.00000000       0.00000000       0.49586529
Ru       0.00000000       0.00000000       4.45050505       0.00000000       0.00000000      -0.49586529
2
Properties=species:S:1:pos:R:3:forces:R:3 energy=-36.95720864176206 pbc="F F F"
Ru       0.00000000       0.00000000       0.00000000       0.00000000       0.00000000       0.53381717
Ru       0.00000000       0.00000000       4.51010101       0.00000000       0.00000000      -0.53381717
2
Properties=species:S:1:pos:R:3:forces:R:3 energy=-36.924317648820626 pbc="F F F"
Ru       0.00000000       0.00000000       0.00000000       0.00000000       0.00000000       0.56892776
Ru       0.00000000       0.00000000       4.56969697       0.00000000       0.00000000      -0.56892776
2
Properties=species:S:1:pos:R:3:forces:R:3 energy=-36.88957749580932 pbc="F F F"
Ru       0.00000000       0.00000000       0.00000000       0.00000000       0.00000000       0.59490716
Ru       0.00000000       0.00000000       4.62929293       0.00000000       0.00000000      -0.59490716
2
Properties=species:S:1:pos:R:3:forces:R:3 energy=-36.8537055929042 pbc="F F F"
Ru       0.00000000       0.00000000       0.00000000       0.00000000       0.00000000       0.60603583
Ru       0.00000000       0.00000000       4.68888889       0.00000000       0.00000000      -0.60603583
2
Properties=species:S:1:pos:R:3:forces:R:3 energy=-36.81773224415614 pbc="F F F"
Ru       0.00000000       0.00000000       0.00000000       0.00000000       0.00000000       0.59762794
Ru       0.00000000       0.00000000       4.74848485       0.00000000       0.00000000      -0.59762794
2
Properties=species:S:1:pos:R:3:forces:R:3 energy=-36.78291671147967 pbc="F F F"
Ru       0.00000000       0.00000000       0.00000000       0.00000000       0.00000000       0.56690884
Ru       0.00000000       0.00000000       4.80808081       0.00000000       0.00000000      -0.56690884
2
Properties=species:S:1:pos:R:3:forces:R:3 energy=-36.75060607877373 pbc="F F F"
Ru       0.00000000       0.00000000       0.00000000       0.00000000       0.00000000       0.51387429
Ru       0.00000000       0.00000000       4.86767677       0.00000000       0.00000000      -0.51387429
2
Properties=species:S:1:pos:R:3:forces:R:3 energy=-36.722048331755616 pbc="F F F"
Ru       0.00000000       0.00000000       0.00000000       0.00000000       0.00000000       0.44170058
Ru       0.00000000       0.00000000       4.92727273       0.00000000       0.00000000      -0.44170058
2
Properties=species:S:1:pos:R:3:forces:R:3 energy=-36.6982206839128 pbc="F F F"
Ru       0.00000000       0.00000000       0.00000000       0.00000000       0.00000000       0.35642228
Ru       0.00000000       0.00000000       4.98686869       0.00000000       0.00000000      -0.35642228
2
Properties=species:S:1:pos:R:3:forces:R:3 energy=-36.67966936872117 pbc="F F F"
Ru       0.00000000       0.00000000       0.00000000       0.00000000       0.00000000       0.26598424
Ru       0.00000000       0.00000000       5.04646465       0.00000000       0.00000000      -0.26598424
2
Properties=species:S:1:pos:R:3:forces:R:3 energy=-36.66644857597843 pbc="F F F"
Ru       0.00000000       0.00000000       0.00000000       0.00000000       0.00000000       0.17905769
Ru       0.00000000       0.00000000       5.10606061       0.00000000       0.00000000      -0.17905769
2
Properties=species:S:1:pos:R:3:forces:R:3 energy=-36.65808995164897 pbc="F F F"
Ru       0.00000000       0.00000000       0.00000000       0.00000000       0.00000000       0.10407984
Ru       0.00000000       0.00000000       5.16565657       0.00000000       0.00000000      -0.10407984
2
Properties=species:S:1:pos:R:3:forces:R:3 energy=-36.65366360609366 pbc="F F F"
Ru       0.00000000       0.00000000       0.00000000       0.00000000       0.00000000       0.04797006
Ru       0.00000000       0.00000000       5.22525253       0.00000000       0.00000000      -0.04797006
2
Properties=species:S:1:pos:R:3:forces:R:3 energy=-36.65193450715422 pbc="F F F"
Ru       0.00000000       0.00000000       0.00000000       0.00000000       0.00000000       0.01366873
Ru       0.00000000       0.00000000       5.28484848       0.00000000       0.00000000      -0.01366873
2
Properties=species:S:1:pos:R:3:forces:R:3 energy=-36.651671470631804 pbc="F F F"
Ru       0.00000000       0.00000000       0.00000000       0.00000000       0.00000000      -0.00241178
Ru       0.00000000       0.00000000       5.34444444       0.00000000       0.00000000       0.00241178
2
Properties=species:S:1:pos:R:3:forces:R:3 energy=-36.652005716487324 pbc="F F F"
Ru       0.00000000       0.00000000       0.00000000       0.00000000       0.00000000      -0.00735817
Ru       0.00000000       0.00000000       5.40404040       0.00000000       0.00000000       0.00735817
2
Properties=species:S:1:pos:R:3:forces:R:3 energy=-36.652297352853296 pbc="F F F"
Ru       0.00000000       0.00000000       0.00000000       0.00000000       0.00000000       0.00068411
Ru       0.00000000       0.00000000       5.46363636       0.00000000       0.00000000      -0.00068411
2
Properties=species:S:1:pos:R:3:forces:R:3 energy=-36.651486858491715 pbc="F F F"
Ru       0.00000000       0.00000000       0.00000000       0.00000000       0.00000000       0.02962085
Ru       0.00000000       0.00000000       5.52323232       0.00000000       0.00000000      -0.02962085
2
Properties=species:S:1:pos:R:3:forces:R:3 energy=-36.64867109891336 pbc="F F F"
Ru       0.00000000       0.00000000       0.00000000       0.00000000       0.00000000       0.06297386
Ru       0.00000000       0.00000000       5.58282828       0.00000000       0.00000000      -0.06297386
2
Properties=species:S:1:pos:R:3:forces:R:3 energy=-36.64436214954897 pbc="F F F"
Ru       0.00000000       0.00000000       0.00000000       0.00000000       0.00000000       0.07874854
Ru       0.00000000       0.00000000       5.64242424       0.00000000       0.00000000      -0.07874854
2
Properties=species:S:1:pos:R:3:forces:R:3 energy=-36.639415375321036 pbc="F F F"
Ru       0.00000000       0.00000000       0.00000000       0.00000000       0.00000000       0.08827675
Ru       0.00000000       0.00000000       5.70202020       0.00000000       0.00000000      -0.08827675
2
Properties=species:S:1:pos:R:3:forces:R:3 energy=-36.63359508704894 pbc="F F F"
Ru       0.00000000       0.00000000       0.00000000       0.00000000       0.00000000       0.10807992
Ru       0.00000000       0.00000000       5.76161616       0.00000000       0.00000000      -0.10807992
2
Properties=species:S:1:pos:R:3:forces:R:3 energy=-36.6268791568264 pbc="F F F"
Ru       0.00000000       0.00000000       0.00000000       0.00000000       0.00000000       0.11045289
Ru       0.00000000       0.00000000       5.82121212       0.00000000       0.00000000      -0.11045289
2
Properties=species:S:1:pos:R:3:forces:R:3 energy=-36.62130914777923 pbc="F F F"
Ru       0.00000000       0.00000000       0.00000000       0.00000000       0.00000000       0.07187536
Ru       0.00000000       0.00000000       5.88080808       0.00000000       0.00000000      -0.07187536
2
Properties=species:S:1:pos:R:3:forces:R:3 energy=-36.618464974180036 pbc="F F F"
Ru       0.00000000       0.00000000       0.00000000       0.00000000       0.00000000       0.02471237
Ru       0.00000000       0.00000000       5.94040404       0.00000000       0.00000000      -0.02471237
2
Properties=species:S:1:pos:R:3:forces:R:3 energy=-36.61777880921664 pbc="F F F"
Ru       0.00000000       0.00000000       0.00000000       0.00000000       0.00000000       0.00499112
Ru       0.00000000       0.00000000       6.00000000       0.00000000       0.00000000      -0.00499112
