2
Properties=species:S:1:pos:R:3:forces:R:3 energy=-123691.08310784605 pbc="F F F"
Sn       0.00000000       0.00000000       0.00000000       0.00000000       0.00000000 -1011355.00000000
Sn       0.00000000       0.00000000       0.10000000       0.00000000       0.00000000 1011355.00000000
2
Properties=species:S:1:pos:R:3:forces:R:3 energy=-152376.07529534606 pbc="F F F"
Sn       0.00000000       0.00000000       0.00000000       0.00000000       0.00000000 -181690.21875000
Sn       0.00000000       0.00000000       0.15959596       0.00000000       0.00000000  181690.21875000
2
Properties=species:S:1:pos:R:3:forces:R:3 energy=-155521.01279534606 pbc="F F F"
Sn       0.00000000       0.00000000       0.00000000       0.00000000       0.00000000   51745.08984375
Sn       0.00000000       0.00000000       0.21919192       0.00000000       0.00000000  -51745.08984375
2
Properties=species:S:1:pos:R:3:forces:R:3 energy=-146900.13779534606 pbc="F F F"
Sn       0.00000000       0.00000000       0.00000000       0.00000000       0.00000000  240614.73437500
Sn       0.00000000       0.00000000       0.27878788       0.00000000       0.00000000 -240614.73437500
2
Properties=species:S:1:pos:R:3:forces:R:3 energy=-126371.58310784605 pbc="F F F"
Sn       0.00000000       0.00000000       0.00000000       0.00000000       0.00000000  449368.50000000
Sn       0.00000000       0.00000000       0.33838384       0.00000000       0.00000000 -449368.50000000
2
Properties=species:S:1:pos:R:3:forces:R:3 energy=-94106.20810784605 pbc="F F F"
Sn       0.00000000       0.00000000       0.00000000       0.00000000       0.00000000  617255.06250000
Sn       0.00000000       0.00000000       0.39797980       0.00000000       0.00000000 -617255.06250000
2
Properties=species:S:1:pos:R:3:forces:R:3 energy=-55975.70420159526 pbc="F F F"
Sn       0.00000000       0.00000000       0.00000000       0.00000000       0.00000000  627571.37500000
Sn       0.00000000       0.00000000       0.45757576       0.00000000       0.00000000 -627571.37500000
2
Properties=species:S:1:pos:R:3:forces:R:3 energy=-23485.758889093675 pbc="F F F"
Sn       0.00000000       0.00000000       0.00000000       0.00000000       0.00000000  434812.15625000
Sn       0.00000000       0.00000000       0.51717172       0.00000000       0.00000000 -434812.15625000
2
Properties=species:S:1:pos:R:3:forces:R:3 energy=-6932.364357841299 pbc="F F F"
Sn       0.00000000       0.00000000       0.00000000       0.00000000       0.00000000  170448.46875000
Sn       0.00000000       0.00000000       0.57676768       0.00000000       0.00000000 -170448.46875000
2
Properties=species:S:1:pos:R:3:forces:R:3 energy=-1525.5213402584222 pbc="F F F"
Sn       0.00000000       0.00000000       0.00000000       0.00000000       0.00000000   45592.82031250
Sn       0.00000000       0.00000000       0.63636364       0.00000000       0.00000000  -45592.82031250
2
Properties=species:S:1:pos:R:3:forces:R:3 energy=-243.87674796534654 pbc="F F F"
Sn       0.00000000       0.00000000       0.00000000       0.00000000       0.00000000    4470.56542969
Sn       0.00000000       0.00000000       0.69595960       0.00000000       0.00000000   -4470.56542969
2
Properties=species:S:1:pos:R:3:forces:R:3 energy=305.9360267047359 pbc="F F F"
Sn       0.00000000       0.00000000       0.00000000       0.00000000       0.00000000  -20937.59570312
Sn       0.00000000       0.00000000       0.75555556       0.00000000       0.00000000   20937.59570312
2
Properties=species:S:1:pos:R:3:forces:R:3 energy=-118.73103412989184 pbc="F F F"
Sn       0.00000000       0.00000000       0.00000000       0.00000000       0.00000000     173.54367065
Sn       0.00000000       0.00000000       0.81515152       0.00000000       0.00000000    -173.54367065
2
Properties=species:S:1:pos:R:3:forces:R:3 energy=-101.71007615777192 pbc="F F F"
Sn       0.00000000       0.00000000       0.00000000       0.00000000       0.00000000     334.62857056
Sn       0.00000000       0.00000000       0.87474747       0.00000000       0.00000000    -334.62857056
2
Properties=species:S:1:pos:R:3:forces:R:3 energy=-84.77119520251573 pbc="F F F"
Sn       0.00000000       0.00000000       0.00000000       0.00000000       0.00000000     328.78408813
Sn       0.00000000       0.00000000       0.93434343       0.00000000       0.00000000    -328.78408813
2
Properties=species:S:1:pos:R:3:forces:R:3 energy=-65.5252921374858 pbc="F F F"
Sn       0.00000000       0.00000000       0.00000000       0.00000000       0.00000000     304.12573242
Sn       0.00000000       0.00000000       0.99393939       0.00000000       0.00000000    -304.12573242
2
Properties=species:S:1:pos:R:3:forces:R:3 energy=-46.90836015647029 pbc="F F F"
Sn       0.00000000       0.00000000       0.00000000       0.00000000       0.00000000     345.08441162
Sn       0.00000000       0.00000000       1.05353535       0.00000000       0.00000000    -345.08441162
2
Properties=species:S:1:pos:R:3:forces:R:3 energy=-30.251118247274164 pbc="F F F"
Sn       0.00000000       0.00000000       0.00000000       0.00000000       0.00000000     223.53483582
Sn       0.00000000       0.00000000       1.11313131       0.00000000       0.00000000    -223.53483582
2
Properties=species:S:1:pos:R:3:forces:R:3 energy=-20.19501347082252 pbc="F F F"
Sn       0.00000000       0.00000000       0.00000000       0.00000000       0.00000000     118.70639801
Sn       0.00000000       0.00000000       1.17272727       0.00000000       0.00000000    -118.70639801
2
Properties=species:S:1:pos:R:3:forces:R:3 energy=-14.79655674844855 pbc="F F F"
Sn       0.00000000       0.00000000       0.00000000       0.00000000       0.00000000      71.42060089
Sn       0.00000000       0.00000000       1.23232323       0.00000000       0.00000000     -71.42060089
2
Properties=species:S:1:pos:R:3:forces:R:3 energy=-12.885656440828514 pbc="F F F"
Sn       0.00000000       0.00000000       0.00000000       0.00000000       0.00000000      -4.11481857
Sn       0.00000000       0.00000000       1.29191919       0.00000000       0.00000000       4.11481857
2
Properties=species:S:1:pos:R:3:forces:R:3 energy=-13.705991586673713 pbc="F F F"
Sn       0.00000000       0.00000000       0.00000000       0.00000000       0.00000000     -20.00276184
Sn       0.00000000       0.00000000       1.35151515       0.00000000       0.00000000      20.00276184
2
Properties=species:S:1:pos:R:3:forces:R:3 energy=-15.327996746793183 pbc="F F F"
Sn       0.00000000       0.00000000       0.00000000       0.00000000       0.00000000     -36.45915222
Sn       0.00000000       0.00000000       1.41111111       0.00000000       0.00000000      36.45915222
2
Properties=species:S:1:pos:R:3:forces:R:3 energy=-18.320338365853562 pbc="F F F"
Sn       0.00000000       0.00000000       0.00000000       0.00000000       0.00000000     -62.50724411
Sn       0.00000000       0.00000000       1.47070707       0.00000000       0.00000000      62.50724411
2
Properties=species:S:1:pos:R:3:forces:R:3 energy=-22.122742306246096 pbc="F F F"
Sn       0.00000000       0.00000000       0.00000000       0.00000000       0.00000000     -59.71161652
Sn       0.00000000       0.00000000       1.53030303       0.00000000       0.00000000      59.71161652
2
Properties=species:S:1:pos:R:3:forces:R:3 energy=-25.20126537823801 pbc="F F F"
Sn       0.00000000       0.00000000       0.00000000       0.00000000       0.00000000     -44.59119797
Sn       0.00000000       0.00000000       1.58989899       0.00000000       0.00000000      44.59119797
2
Properties=species:S:1:pos:R:3:forces:R:3 energy=-27.664399459613428 pbc="F F F"
Sn       0.00000000       0.00000000       0.00000000       0.00000000       0.00000000     -39.76005936
Sn       0.00000000       0.00000000       1.64949495       0.00000000       0.00000000      39.76005936
2
Properties=species:S:1:pos:R:3:forces:R:3 energy=-30.04829831440495 pbc="F F F"
Sn       0.00000000       0.00000000       0.00000000       0.00000000       0.00000000     -40.46860123
Sn       0.00000000       0.00000000       1.70909091       0.00000000       0.00000000      40.46860123
2
Properties=species:S:1:pos:R:3:forces:R:3 energy=-32.47176305718007 pbc="F F F"
Sn       0.00000000       0.00000000       0.00000000       0.00000000       0.00000000     -40.53998184
Sn       0.00000000       0.00000000       1.76868687       0.00000000       0.00000000      40.53998184
2
Properties=species:S:1:pos:R:3:forces:R:3 energy=-34.83844966845559 pbc="F F F"
Sn       0.00000000       0.00000000       0.00000000       0.00000000       0.00000000     -38.55017090
Sn       0.00000000       0.00000000       1.82828283       0.00000000       0.00000000      38.55017090
2
Properties=species:S:1:pos:R:3:forces:R:3 energy=-37.03223489966737 pbc="F F F"
Sn       0.00000000       0.00000000       0.00000000       0.00000000       0.00000000     -34.83681107
Sn       0.00000000       0.00000000       1.88787879       0.00000000       0.00000000      34.83681107
2
Properties=species:S:1:pos:R:3:forces:R:3 energy=-38.96981718920294 pbc="F F F"
Sn       0.00000000       0.00000000       0.00000000       0.00000000       0.00000000     -30.07248878
Sn       0.00000000       0.00000000       1.94747475       0.00000000       0.00000000      30.07248878
2
Properties=species:S:1:pos:R:3:forces:R:3 energy=-40.60993292506181 pbc="F F F"
Sn       0.00000000       0.00000000       0.00000000       0.00000000       0.00000000     -24.96566200
Sn       0.00000000       0.00000000       2.00707071       0.00000000       0.00000000      24.96566200
2
Properties=species:S:1:pos:R:3:forces:R:3 energy=-41.950213138268396 pbc="F F F"
Sn       0.00000000       0.00000000       0.00000000       0.00000000       0.00000000     -20.08652306
Sn       0.00000000       0.00000000       2.06666667       0.00000000       0.00000000      20.08652306
2
Properties=species:S:1:pos:R:3:forces:R:3 energy=-43.01521681734859 pbc="F F F"
Sn       0.00000000       0.00000000       0.00000000       0.00000000       0.00000000     -15.76081276
Sn       0.00000000       0.00000000       2.12626263       0.00000000       0.00000000      15.76081276
2
Properties=species:S:1:pos:R:3:forces:R:3 energy=-43.84206855966152 pbc="F F F"
Sn       0.00000000       0.00000000       0.00000000       0.00000000       0.00000000     -12.10038185
Sn       0.00000000       0.00000000       2.18585859       0.00000000       0.00000000      12.10038185
2
Properties=species:S:1:pos:R:3:forces:R:3 energy=-44.47061283538103 pbc="F F F"
Sn       0.00000000       0.00000000       0.00000000       0.00000000       0.00000000      -9.09942627
Sn       0.00000000       0.00000000       2.24545455       0.00000000       0.00000000       9.09942627
2
Properties=species:S:1:pos:R:3:forces:R:3 energy=-44.93871430422314 pbc="F F F"
Sn       0.00000000       0.00000000       0.00000000       0.00000000       0.00000000      -6.70522690
Sn       0.00000000       0.00000000       2.30505051       0.00000000       0.00000000       6.70522690
2
Properties=species:S:1:pos:R:3:forces:R:3 energy=-45.280361893481995 pbc="F F F"
Sn       0.00000000       0.00000000       0.00000000       0.00000000       0.00000000      -4.84105587
Sn       0.00000000       0.00000000       2.36464646       0.00000000       0.00000000       4.84105587
2
Properties=species:S:1:pos:R:3:forces:R:3 energy=-45.52432986384024 pbc="F F F"
Sn       0.00000000       0.00000000       0.00000000       0.00000000       0.00000000      -3.40935874
Sn       0.00000000       0.00000000       2.42424242       0.00000000       0.00000000       3.40935874
2
Properties=species:S:1:pos:R:3:forces:R:3 energy=-45.69320504810307 pbc="F F F"
Sn       0.00000000       0.00000000       0.00000000       0.00000000       0.00000000      -2.30387712
Sn       0.00000000       0.00000000       2.48383838       0.00000000       0.00000000       2.30387712
2
Properties=species:S:1:pos:R:3:forces:R:3 energy=-45.80353948185443 pbc="F F F"
Sn       0.00000000       0.00000000       0.00000000       0.00000000       0.00000000      -1.43141305
Sn       0.00000000       0.00000000       2.54343434       0.00000000       0.00000000       1.43141305
2
Properties=species:S:1:pos:R:3:forces:R:3 energy=-45.86713594059643 pbc="F F F"
Sn       0.00000000       0.00000000       0.00000000       0.00000000       0.00000000      -0.72681618
Sn       0.00000000       0.00000000       2.60303030       0.00000000       0.00000000       0.72681618
2
Properties=species:S:1:pos:R:3:forces:R:3 energy=-45.89269211703641 pbc="F F F"
Sn       0.00000000       0.00000000       0.00000000       0.00000000       0.00000000      -0.14938878
Sn       0.00000000       0.00000000       2.66262626       0.00000000       0.00000000       0.14938878
2
Properties=species:S:1:pos:R:3:forces:R:3 energy=-45.88686493429538 pbc="F F F"
Sn       0.00000000       0.00000000       0.00000000       0.00000000       0.00000000       0.33106723
Sn       0.00000000       0.00000000       2.72222222       0.00000000       0.00000000      -0.33106723
2
Properties=species:S:1:pos:R:3:forces:R:3 energy=-45.854636813866286 pbc="F F F"
Sn       0.00000000       0.00000000       0.00000000       0.00000000       0.00000000       0.74039698
Sn       0.00000000       0.00000000       2.78181818       0.00000000       0.00000000      -0.74039698
2
Properties=species:S:1:pos:R:3:forces:R:3 energy=-45.799746809264924 pbc="F F F"
Sn       0.00000000       0.00000000       0.00000000       0.00000000       0.00000000       1.09198773
Sn       0.00000000       0.00000000       2.84141414       0.00000000       0.00000000      -1.09198773
2
Properties=species:S:1:pos:R:3:forces:R:3 energy=-45.72576274741375 pbc="F F F"
Sn       0.00000000       0.00000000       0.00000000       0.00000000       0.00000000       1.37854803
Sn       0.00000000       0.00000000       2.90101010       0.00000000       0.00000000      -1.37854803
2
Properties=species:S:1:pos:R:3:forces:R:3 energy=-45.63709244574313 pbc="F F F"
Sn       0.00000000       0.00000000       0.00000000       0.00000000       0.00000000       1.58239436
Sn       0.00000000       0.00000000       2.96060606       0.00000000       0.00000000      -1.58239436
2
Properties=species:S:1:pos:R:3:forces:R:3 energy=-45.53885091767466 pbc="F F F"
Sn       0.00000000       0.00000000       0.00000000       0.00000000       0.00000000       1.70210338
Sn       0.00000000       0.00000000       3.02020202       0.00000000       0.00000000      -1.70210338
2
Properties=species:S:1:pos:R:3:forces:R:3 energy=-45.43525559122061 pbc="F F F"
Sn       0.00000000       0.00000000       0.00000000       0.00000000       0.00000000       1.77003932
Sn       0.00000000       0.00000000       3.07979798       0.00000000       0.00000000      -1.77003932
2
Properties=species:S:1:pos:R:3:forces:R:3 energy=-45.32787298880885 pbc="F F F"
Sn       0.00000000       0.00000000       0.00000000       0.00000000       0.00000000       1.83746409
Sn       0.00000000       0.00000000       3.13939394       0.00000000       0.00000000      -1.83746409
2
Properties=species:S:1:pos:R:3:forces:R:3 energy=-45.21556571987476 pbc="F F F"
Sn       0.00000000       0.00000000       0.00000000       0.00000000       0.00000000       1.93765032
Sn       0.00000000       0.00000000       3.19898990       0.00000000       0.00000000      -1.93765032
2
Properties=species:S:1:pos:R:3:forces:R:3 energy=-45.096380391555655 pbc="F F F"
Sn       0.00000000       0.00000000       0.00000000       0.00000000       0.00000000       2.06402659
Sn       0.00000000       0.00000000       3.25858586       0.00000000       0.00000000      -2.06402659
2
Properties=species:S:1:pos:R:3:forces:R:3 energy=-44.96970551836125 pbc="F F F"
Sn       0.00000000       0.00000000       0.00000000       0.00000000       0.00000000       2.18263960
Sn       0.00000000       0.00000000       3.31818182       0.00000000       0.00000000      -2.18263960
2
Properties=species:S:1:pos:R:3:forces:R:3 energy=-44.837047377353755 pbc="F F F"
Sn       0.00000000       0.00000000       0.00000000       0.00000000       0.00000000       2.26070333
Sn       0.00000000       0.00000000       3.37777778       0.00000000       0.00000000      -2.26070333
2
Properties=species:S:1:pos:R:3:forces:R:3 energy=-44.70134542504479 pbc="F F F"
Sn       0.00000000       0.00000000       0.00000000       0.00000000       0.00000000       2.28415895
Sn       0.00000000       0.00000000       3.43737374       0.00000000       0.00000000      -2.28415895
2
Properties=species:S:1:pos:R:3:forces:R:3 energy=-44.56580581443837 pbc="F F F"
Sn       0.00000000       0.00000000       0.00000000       0.00000000       0.00000000       2.25708818
Sn       0.00000000       0.00000000       3.49696970       0.00000000       0.00000000      -2.25708818
2
Properties=species:S:1:pos:R:3:forces:R:3 energy=-44.433068150065935 pbc="F F F"
Sn       0.00000000       0.00000000       0.00000000       0.00000000       0.00000000       2.19224286
Sn       0.00000000       0.00000000       3.55656566       0.00000000       0.00000000      -2.19224286
2
Properties=species:S:1:pos:R:3:forces:R:3 energy=-44.30499335509467 pbc="F F F"
Sn       0.00000000       0.00000000       0.00000000       0.00000000       0.00000000       2.10272908
Sn       0.00000000       0.00000000       3.61616162       0.00000000       0.00000000      -2.10272908
2
Properties=species:S:1:pos:R:3:forces:R:3 energy=-44.182730891685715 pbc="F F F"
Sn       0.00000000       0.00000000       0.00000000       0.00000000       0.00000000       1.99854720
Sn       0.00000000       0.00000000       3.67575758       0.00000000       0.00000000      -1.99854720
2
Properties=species:S:1:pos:R:3:forces:R:3 energy=-44.06693282089534 pbc="F F F"
Sn       0.00000000       0.00000000       0.00000000       0.00000000       0.00000000       1.88681805
Sn       0.00000000       0.00000000       3.73535354       0.00000000       0.00000000      -1.88681805
2
Properties=species:S:1:pos:R:3:forces:R:3 energy=-43.957877899449116 pbc="F F F"
Sn       0.00000000       0.00000000       0.00000000       0.00000000       0.00000000       1.77296233
Sn       0.00000000       0.00000000       3.79494949       0.00000000       0.00000000      -1.77296233
2
Properties=species:S:1:pos:R:3:forces:R:3 energy=-43.85556359181055 pbc="F F F"
Sn       0.00000000       0.00000000       0.00000000       0.00000000       0.00000000       1.66133988
Sn       0.00000000       0.00000000       3.85454545       0.00000000       0.00000000      -1.66133988
2
Properties=species:S:1:pos:R:3:forces:R:3 energy=-43.759752712947545 pbc="F F F"
Sn       0.00000000       0.00000000       0.00000000       0.00000000       0.00000000       1.55513859
Sn       0.00000000       0.00000000       3.91414141       0.00000000       0.00000000      -1.55513859
2
Properties=species:S:1:pos:R:3:forces:R:3 energy=-43.67006187912958 pbc="F F F"
Sn       0.00000000       0.00000000       0.00000000       0.00000000       0.00000000       1.45607138
Sn       0.00000000       0.00000000       3.97373737       0.00000000       0.00000000      -1.45607138
2
Properties=species:S:1:pos:R:3:forces:R:3 energy=-43.58605351999622 pbc="F F F"
Sn       0.00000000       0.00000000       0.00000000       0.00000000       0.00000000       1.36431980
Sn       0.00000000       0.00000000       4.03333333       0.00000000       0.00000000      -1.36431980
2
Properties=species:S:1:pos:R:3:forces:R:3 energy=-43.507320107591866 pbc="F F F"
Sn       0.00000000       0.00000000       0.00000000       0.00000000       0.00000000       1.27884507
Sn       0.00000000       0.00000000       4.09292929       0.00000000       0.00000000      -1.27884507
2
Properties=species:S:1:pos:R:3:forces:R:3 energy=-43.43353392007646 pbc="F F F"
Sn       0.00000000       0.00000000       0.00000000       0.00000000       0.00000000       1.19792771
Sn       0.00000000       0.00000000       4.15252525       0.00000000       0.00000000      -1.19792771
2
Properties=species:S:1:pos:R:3:forces:R:3 energy=-43.364481503881606 pbc="F F F"
Sn       0.00000000       0.00000000       0.00000000       0.00000000       0.00000000       1.11978972
Sn       0.00000000       0.00000000       4.21212121       0.00000000       0.00000000      -1.11978972
2
Properties=species:S:1:pos:R:3:forces:R:3 energy=-43.30003701993096 pbc="F F F"
Sn       0.00000000       0.00000000       0.00000000       0.00000000       0.00000000       1.04303718
Sn       0.00000000       0.00000000       4.27171717       0.00000000       0.00000000      -1.04303718
2
Properties=species:S:1:pos:R:3:forces:R:3 energy=-43.24014704583175 pbc="F F F"
Sn       0.00000000       0.00000000       0.00000000       0.00000000       0.00000000       0.96693754
Sn       0.00000000       0.00000000       4.33131313       0.00000000       0.00000000      -0.96693754
2
Properties=species:S:1:pos:R:3:forces:R:3 energy=-43.18477720733493 pbc="F F F"
Sn       0.00000000       0.00000000       0.00000000       0.00000000       0.00000000       0.89143687
Sn       0.00000000       0.00000000       4.39090909       0.00000000       0.00000000      -0.89143687
2
Properties=species:S:1:pos:R:3:forces:R:3 energy=-43.13387402661083 pbc="F F F"
Sn       0.00000000       0.00000000       0.00000000       0.00000000       0.00000000       0.81699777
Sn       0.00000000       0.00000000       4.45050505       0.00000000       0.00000000      -0.81699777
2
Properties=species:S:1:pos:R:3:forces:R:3 energy=-43.08736115190139 pbc="F F F"
Sn       0.00000000       0.00000000       0.00000000       0.00000000       0.00000000       0.74433923
Sn       0.00000000       0.00000000       4.51010101       0.00000000       0.00000000      -0.74433923
2
Properties=species:S:1:pos:R:3:forces:R:3 energy=-43.0451050117815 pbc="F F F"
Sn       0.00000000       0.00000000       0.00000000       0.00000000       0.00000000       0.67410463
Sn       0.00000000       0.00000000       4.56969697       0.00000000       0.00000000      -0.67410463
2
Properties=species:S:1:pos:R:3:forces:R:3 energy=-43.00695681721871 pbc="F F F"
Sn       0.00000000       0.00000000       0.00000000       0.00000000       0.00000000       0.60666639
Sn       0.00000000       0.00000000       4.62929293       0.00000000       0.00000000      -0.60666639
2
Properties=species:S:1:pos:R:3:forces:R:3 energy=-42.97274109055487 pbc="F F F"
Sn       0.00000000       0.00000000       0.00000000       0.00000000       0.00000000       0.54204112
Sn       0.00000000       0.00000000       4.68888889       0.00000000       0.00000000      -0.54204112
2
Properties=species:S:1:pos:R:3:forces:R:3 energy=-42.94229765806239 pbc="F F F"
Sn       0.00000000       0.00000000       0.00000000       0.00000000       0.00000000       0.47999930
Sn       0.00000000       0.00000000       4.74848485       0.00000000       0.00000000      -0.47999930
2
Properties=species:S:1:pos:R:3:forces:R:3 energy=-42.915481641232674 pbc="F F F"
Sn       0.00000000       0.00000000       0.00000000       0.00000000       0.00000000       0.42039230
Sn       0.00000000       0.00000000       4.80808081       0.00000000       0.00000000      -0.42039230
2
Properties=species:S:1:pos:R:3:forces:R:3 energy=-42.89213677290225 pbc="F F F"
Sn       0.00000000       0.00000000       0.00000000       0.00000000       0.00000000       0.36349308
Sn       0.00000000       0.00000000       4.86767677       0.00000000       0.00000000      -0.36349308
2
Properties=species:S:1:pos:R:3:forces:R:3 energy=-42.872080123416474 pbc="F F F"
Sn       0.00000000       0.00000000       0.00000000       0.00000000       0.00000000       0.31030780
Sn       0.00000000       0.00000000       4.92727273       0.00000000       0.00000000      -0.31030780
2
Properties=species:S:1:pos:R:3:forces:R:3 energy=-42.85504107972856 pbc="F F F"
Sn       0.00000000       0.00000000       0.00000000       0.00000000       0.00000000       0.26260278
Sn       0.00000000       0.00000000       4.98686869       0.00000000       0.00000000      -0.26260278
2
Properties=species:S:1:pos:R:3:forces:R:3 energy=-42.84063083970074 pbc="F F F"
Sn       0.00000000       0.00000000       0.00000000       0.00000000       0.00000000       0.22258386
Sn       0.00000000       0.00000000       5.04646465       0.00000000       0.00000000      -0.22258386
2
Properties=species:S:1:pos:R:3:forces:R:3 energy=-42.828323306147766 pbc="F F F"
Sn       0.00000000       0.00000000       0.00000000       0.00000000       0.00000000       0.19211744
Sn       0.00000000       0.00000000       5.10606061       0.00000000       0.00000000      -0.19211744
2
Properties=species:S:1:pos:R:3:forces:R:3 energy=-42.81752759855516 pbc="F F F"
Sn       0.00000000       0.00000000       0.00000000       0.00000000       0.00000000       0.17178820
Sn       0.00000000       0.00000000       5.16565657       0.00000000       0.00000000      -0.17178820
2
Properties=species:S:1:pos:R:3:forces:R:3 energy=-42.80767577369325 pbc="F F F"
Sn       0.00000000       0.00000000       0.00000000       0.00000000       0.00000000       0.16003981
Sn       0.00000000       0.00000000       5.22525253       0.00000000       0.00000000      -0.16003981
2
Properties=species:S:1:pos:R:3:forces:R:3 energy=-42.798360154718786 pbc="F F F"
Sn       0.00000000       0.00000000       0.00000000       0.00000000       0.00000000       0.15294427
Sn       0.00000000       0.00000000       5.28484848       0.00000000       0.00000000      -0.15294427
2
Properties=species:S:1:pos:R:3:forces:R:3 energy=-42.78945540307133 pbc="F F F"
Sn       0.00000000       0.00000000       0.00000000       0.00000000       0.00000000       0.14540914
Sn       0.00000000       0.00000000       5.34444444       0.00000000       0.00000000      -0.14540914
2
Properties=species:S:1:pos:R:3:forces:R:3 energy=-42.7811032414692 pbc="F F F"
Sn       0.00000000       0.00000000       0.00000000       0.00000000       0.00000000       0.13429525
Sn       0.00000000       0.00000000       5.40404040       0.00000000       0.00000000      -0.13429525
2
Properties=species:S:1:pos:R:3:forces:R:3 energy=-42.77347976687975 pbc="F F F"
Sn       0.00000000       0.00000000       0.00000000       0.00000000       0.00000000       0.12165438
Sn       0.00000000       0.00000000       5.46363636       0.00000000       0.00000000      -0.12165438
2
Properties=species:S:1:pos:R:3:forces:R:3 energy=-42.76653985233935 pbc="F F F"
Sn       0.00000000       0.00000000       0.00000000       0.00000000       0.00000000       0.11212378
Sn       0.00000000       0.00000000       5.52323232       0.00000000       0.00000000      -0.11212378
2
Properties=species:S:1:pos:R:3:forces:R:3 energy=-42.76003621489597 pbc="F F F"
Sn       0.00000000       0.00000000       0.00000000       0.00000000       0.00000000       0.10654334
Sn       0.00000000       0.00000000       5.58282828       0.00000000       0.00000000      -0.10654334
2
Properties=species:S:1:pos:R:3:forces:R:3 energy=-42.75383220732177 pbc="F F F"
Sn       0.00000000       0.00000000       0.00000000       0.00000000       0.00000000       0.10123169
Sn       0.00000000       0.00000000       5.64242424       0.00000000       0.00000000      -0.10123169
2
Properties=species:S:1:pos:R:3:forces:R:3 energy=-42.74805822307684 pbc="F F F"
Sn       0.00000000       0.00000000       0.00000000       0.00000000       0.00000000       0.09133458
Sn       0.00000000       0.00000000       5.70202020       0.00000000       0.00000000      -0.09133458
2
Properties=species:S:1:pos:R:3:forces:R:3 energy=-42.74308880099798 pbc="F F F"
Sn       0.00000000       0.00000000       0.00000000       0.00000000       0.00000000       0.07446218
Sn       0.00000000       0.00000000       5.76161616       0.00000000       0.00000000      -0.07446218
2
Properties=species:S:1:pos:R:3:forces:R:3 energy=-42.739302273236476 pbc="F F F"
Sn       0.00000000       0.00000000       0.00000000       0.00000000       0.00000000       0.05177627
Sn       0.00000000       0.00000000       5.82121212       0.00000000       0.00000000      -0.05177627
2
Properties=species:S:1:pos:R:3:forces:R:3 energy=-42.7369396349225 pbc="F F F"
Sn       0.00000000       0.00000000       0.00000000       0.00000000       0.00000000       0.02825534
Sn       0.00000000       0.00000000       5.88080808       0.00000000       0.00000000      -0.02825534
2
Properties=species:S:1:pos:R:3:forces:R:3 energy=-42.73581079505261 pbc="F F F"
Sn       0.00000000       0.00000000       0.00000000       0.00000000       0.00000000       0.01075867
Sn       0.00000000       0.00000000       5.94040404       0.00000000       0.00000000      -0.01075867
2
Properties=species:S:1:pos:R:3:forces:R:3 energy=-42.73543190400744 pbc="F F F"
Sn       0.00000000       0.00000000       0.00000000       0.00000000       0.00000000       0.00422300
Sn       0.00000000       0.00000000       6.00000000       0.00000000       0.00000000      -0.00422300
