2
Properties=species:S:1:pos:R:3:forces:R:3 energy=274447.06482910796 pbc="F F F"
Tb       0.00000000       0.00000000       0.00000000       0.00000000       0.00000000 -1585465.25000000
Tb       0.00000000       0.00000000       0.10000000       0.00000000       0.00000000 1585465.25000000
2
Properties=species:S:1:pos:R:3:forces:R:3 energy=228206.50232910793 pbc="F F F"
Tb       0.00000000       0.00000000       0.00000000       0.00000000       0.00000000 -346617.43750000
Tb       0.00000000       0.00000000       0.15959596       0.00000000       0.00000000  346617.43750000
2
Properties=species:S:1:pos:R:3:forces:R:3 energy=215203.76795410793 pbc="F F F"
Tb       0.00000000       0.00000000       0.00000000       0.00000000       0.00000000 -146641.20312500
Tb       0.00000000       0.00000000       0.21919192       0.00000000       0.00000000  146641.20312500
2
Properties=species:S:1:pos:R:3:forces:R:3 energy=207079.25232910793 pbc="F F F"
Tb       0.00000000       0.00000000       0.00000000       0.00000000       0.00000000 -143708.37500000
Tb       0.00000000       0.00000000       0.27878788       0.00000000       0.00000000  143708.37500000
2
Properties=species:S:1:pos:R:3:forces:R:3 energy=196539.28357910793 pbc="F F F"
Tb       0.00000000       0.00000000       0.00000000       0.00000000       0.00000000 -220179.06250000
Tb       0.00000000       0.00000000       0.33838384       0.00000000       0.00000000  220179.06250000
2
Properties=species:S:1:pos:R:3:forces:R:3 energy=179832.93982910793 pbc="F F F"
Tb       0.00000000       0.00000000       0.00000000       0.00000000       0.00000000 -347359.50000000
Tb       0.00000000       0.00000000       0.39797980       0.00000000       0.00000000  347359.50000000
2
Properties=species:S:1:pos:R:3:forces:R:3 energy=154640.22107910793 pbc="F F F"
Tb       0.00000000       0.00000000       0.00000000       0.00000000       0.00000000 -499190.68750000
Tb       0.00000000       0.00000000       0.45757576       0.00000000       0.00000000  499190.68750000
2
Properties=species:S:1:pos:R:3:forces:R:3 energy=120720.09607911111 pbc="F F F"
Tb       0.00000000       0.00000000       0.00000000       0.00000000       0.00000000 -630699.87500000
Tb       0.00000000       0.00000000       0.51717172       0.00000000       0.00000000  630699.87500000
2
Properties=species:S:1:pos:R:3:forces:R:3 energy=81110.76014161111 pbc="F F F"
Tb       0.00000000       0.00000000       0.00000000       0.00000000       0.00000000 -679410.00000000
Tb       0.00000000       0.00000000       0.57676768       0.00000000       0.00000000  679410.00000000
2
Properties=species:S:1:pos:R:3:forces:R:3 energy=42471.15076661427 pbc="F F F"
Tb       0.00000000       0.00000000       0.00000000       0.00000000       0.00000000 -592732.56250000
Tb       0.00000000       0.00000000       0.63636364       0.00000000       0.00000000  592732.56250000
2
Properties=species:S:1:pos:R:3:forces:R:3 energy=13095.76697755811 pbc="F F F"
Tb       0.00000000       0.00000000       0.00000000       0.00000000       0.00000000 -376879.62500000
Tb       0.00000000       0.00000000       0.69595960       0.00000000       0.00000000  376879.62500000
2
Properties=species:S:1:pos:R:3:forces:R:3 energy=-1743.7376611042614 pbc="F F F"
Tb       0.00000000       0.00000000       0.00000000       0.00000000       0.00000000 -127101.00781250
Tb       0.00000000       0.00000000       0.75555556       0.00000000       0.00000000  127101.00781250
2
Properties=species:S:1:pos:R:3:forces:R:3 energy=-4058.2925927322153 pbc="F F F"
Tb       0.00000000       0.00000000       0.00000000       0.00000000       0.00000000   25193.41992188
Tb       0.00000000       0.00000000       0.81515152       0.00000000       0.00000000  -25193.41992188
2
Properties=species:S:1:pos:R:3:forces:R:3 energy=-572.7471825569581 pbc="F F F"
Tb       0.00000000       0.00000000       0.00000000       0.00000000       0.00000000   33731.36328125
Tb       0.00000000       0.00000000       0.87474747       0.00000000       0.00000000  -33731.36328125
2
Properties=species:S:1:pos:R:3:forces:R:3 energy=-66.65430228259216 pbc="F F F"
Tb       0.00000000       0.00000000       0.00000000       0.00000000       0.00000000     668.61071777
Tb       0.00000000       0.00000000       0.93434343       0.00000000       0.00000000    -668.61071777
2
Properties=species:S:1:pos:R:3:forces:R:3 energy=-55.416825898869156 pbc="F F F"
Tb       0.00000000       0.00000000       0.00000000       0.00000000       0.00000000      19.64864922
Tb       0.00000000       0.00000000       0.99393939       0.00000000       0.00000000     -19.64864922
2
Properties=species:S:1:pos:R:3:forces:R:3 energy=-49.101316052041426 pbc="F F F"
Tb       0.00000000       0.00000000       0.00000000       0.00000000       0.00000000     -44.90280914
Tb       0.00000000       0.00000000       1.05353535       0.00000000       0.00000000      44.90280914
2
Properties=species:S:1:pos:R:3:forces:R:3 energy=-50.63211203654255 pbc="F F F"
Tb       0.00000000       0.00000000       0.00000000       0.00000000       0.00000000     -32.79132843
Tb       0.00000000       0.00000000       1.11313131       0.00000000       0.00000000      32.79132843
2
Properties=species:S:1:pos:R:3:forces:R:3 energy=-53.13629285921448 pbc="F F F"
Tb       0.00000000       0.00000000       0.00000000       0.00000000       0.00000000     -46.26646042
Tb       0.00000000       0.00000000       1.17272727       0.00000000       0.00000000      46.26646042
2
Properties=species:S:1:pos:R:3:forces:R:3 energy=-55.82629519291478 pbc="F F F"
Tb       0.00000000       0.00000000       0.00000000       0.00000000       0.00000000     -43.19649887
Tb       0.00000000       0.00000000       1.23232323       0.00000000       0.00000000      43.19649887
2
Properties=species:S:1:pos:R:3:forces:R:3 energy=-58.20022312359896 pbc="F F F"
Tb       0.00000000       0.00000000       0.00000000       0.00000000       0.00000000     -36.05772781
Tb       0.00000000       0.00000000       1.29191919       0.00000000       0.00000000      36.05772781
2
Properties=species:S:1:pos:R:3:forces:R:3 energy=-60.14717957755458 pbc="F F F"
Tb       0.00000000       0.00000000       0.00000000       0.00000000       0.00000000     -29.72833824
Tb       0.00000000       0.00000000       1.35151515       0.00000000       0.00000000      29.72833824
2
Properties=species:S:1:pos:R:3:forces:R:3 energy=-61.77977441489507 pbc="F F F"
Tb       0.00000000       0.00000000       0.00000000       0.00000000       0.00000000     -25.25386620
Tb       0.00000000       0.00000000       1.41111111       0.00000000       0.00000000      25.25386620
2
Properties=species:S:1:pos:R:3:forces:R:3 energy=-63.18057675159923 pbc="F F F"
Tb       0.00000000       0.00000000       0.00000000       0.00000000       0.00000000     -21.94930077
Tb       0.00000000       0.00000000       1.47070707       0.00000000       0.00000000      21.94930077
2
Properties=species:S:1:pos:R:3:forces:R:3 energy=-64.41064843095882 pbc="F F F"
Tb       0.00000000       0.00000000       0.00000000       0.00000000       0.00000000     -19.36388969
Tb       0.00000000       0.00000000       1.53030303       0.00000000       0.00000000      19.36388969
2
Properties=species:S:1:pos:R:3:forces:R:3 energy=-65.48485913657959 pbc="F F F"
Tb       0.00000000       0.00000000       0.00000000       0.00000000       0.00000000     -16.61566925
Tb       0.00000000       0.00000000       1.58989899       0.00000000       0.00000000      16.61566925
2
Properties=species:S:1:pos:R:3:forces:R:3 energy=-66.3810912347085 pbc="F F F"
Tb       0.00000000       0.00000000       0.00000000       0.00000000       0.00000000     -13.38547993
Tb       0.00000000       0.00000000       1.64949495       0.00000000       0.00000000      13.38547993
2
Properties=species:S:1:pos:R:3:forces:R:3 energy=-67.07852410133417 pbc="F F F"
Tb       0.00000000       0.00000000       0.00000000       0.00000000       0.00000000     -10.09843540
Tb       0.00000000       0.00000000       1.70909091       0.00000000       0.00000000      10.09843540
2
Properties=species:S:1:pos:R:3:forces:R:3 energy=-67.60615704289508 pbc="F F F"
Tb       0.00000000       0.00000000       0.00000000       0.00000000       0.00000000      -7.86553431
Tb       0.00000000       0.00000000       1.76868687       0.00000000       0.00000000       7.86553431
2
Properties=species:S:1:pos:R:3:forces:R:3 energy=-68.04908067442354 pbc="F F F"
Tb       0.00000000       0.00000000       0.00000000       0.00000000       0.00000000      -7.25590515
Tb       0.00000000       0.00000000       1.82828283       0.00000000       0.00000000       7.25590515
2
Properties=species:S:1:pos:R:3:forces:R:3 energy=-68.4935376621973 pbc="F F F"
Tb       0.00000000       0.00000000       0.00000000       0.00000000       0.00000000      -7.76109457
Tb       0.00000000       0.00000000       1.88787879       0.00000000       0.00000000       7.76109457
2
Properties=species:S:1:pos:R:3:forces:R:3 energy=-68.97537849627268 pbc="F F F"
Tb       0.00000000       0.00000000       0.00000000       0.00000000       0.00000000      -8.34419823
Tb       0.00000000       0.00000000       1.94747475       0.00000000       0.00000000       8.34419823
2
Properties=species:S:1:pos:R:3:forces:R:3 energy=-69.47581196208012 pbc="F F F"
Tb       0.00000000       0.00000000       0.00000000       0.00000000       0.00000000      -8.33484745
Tb       0.00000000       0.00000000       2.00707071       0.00000000       0.00000000       8.33484745
2
Properties=species:S:1:pos:R:3:forces:R:3 energy=-69.95700385729306 pbc="F F F"
Tb       0.00000000       0.00000000       0.00000000       0.00000000       0.00000000      -7.73982716
Tb       0.00000000       0.00000000       2.06666667       0.00000000       0.00000000       7.73982716
2
Properties=species:S:1:pos:R:3:forces:R:3 energy=-70.39288451228786 pbc="F F F"
Tb       0.00000000       0.00000000       0.00000000       0.00000000       0.00000000      -6.86746168
Tb       0.00000000       0.00000000       2.12626263       0.00000000       0.00000000       6.86746168
2
Properties=species:S:1:pos:R:3:forces:R:3 energy=-70.77535910145298 pbc="F F F"
Tb       0.00000000       0.00000000       0.00000000       0.00000000       0.00000000      -5.98180199
Tb       0.00000000       0.00000000       2.18585859       0.00000000       0.00000000       5.98180199
2
Properties=species:S:1:pos:R:3:forces:R:3 energy=-71.10887553012192 pbc="F F F"
Tb       0.00000000       0.00000000       0.00000000       0.00000000       0.00000000      -5.24463606
Tb       0.00000000       0.00000000       2.24545455       0.00000000       0.00000000       5.24463606
2
Properties=species:S:1:pos:R:3:forces:R:3 energy=-71.40483969243375 pbc="F F F"
Tb       0.00000000       0.00000000       0.00000000       0.00000000       0.00000000      -4.72248173
Tb       0.00000000       0.00000000       2.30505051       0.00000000       0.00000000       4.72248173
2
Properties=species:S:1:pos:R:3:forces:R:3 energy=-71.67477956867914 pbc="F F F"
Tb       0.00000000       0.00000000       0.00000000       0.00000000       0.00000000      -4.34913158
Tb       0.00000000       0.00000000       2.36464646       0.00000000       0.00000000       4.34913158
2
Properties=species:S:1:pos:R:3:forces:R:3 energy=-71.92299808035291 pbc="F F F"
Tb       0.00000000       0.00000000       0.00000000       0.00000000       0.00000000      -3.96632552
Tb       0.00000000       0.00000000       2.42424242       0.00000000       0.00000000       3.96632552
2
Properties=species:S:1:pos:R:3:forces:R:3 energy=-72.14497094581289 pbc="F F F"
Tb       0.00000000       0.00000000       0.00000000       0.00000000       0.00000000      -3.45856047
Tb       0.00000000       0.00000000       2.48383838       0.00000000       0.00000000       3.45856047
2
Properties=species:S:1:pos:R:3:forces:R:3 energy=-72.33265671986669 pbc="F F F"
Tb       0.00000000       0.00000000       0.00000000       0.00000000       0.00000000      -2.82330179
Tb       0.00000000       0.00000000       2.54343434       0.00000000       0.00000000       2.82330179
2
Properties=species:S:1:pos:R:3:forces:R:3 energy=-72.48020359672022 pbc="F F F"
Tb       0.00000000       0.00000000       0.00000000       0.00000000       0.00000000      -2.12305856
Tb       0.00000000       0.00000000       2.60303030       0.00000000       0.00000000       2.12305856
2
Properties=species:S:1:pos:R:3:forces:R:3 energy=-72.58564311655668 pbc="F F F"
Tb       0.00000000       0.00000000       0.00000000       0.00000000       0.00000000      -1.41898227
Tb       0.00000000       0.00000000       2.66262626       0.00000000       0.00000000       1.41898227
2
Properties=species:S:1:pos:R:3:forces:R:3 energy=-72.65008910762121 pbc="F F F"
Tb       0.00000000       0.00000000       0.00000000       0.00000000       0.00000000      -0.75287348
Tb       0.00000000       0.00000000       2.72222222       0.00000000       0.00000000       0.75287348
2
Properties=species:S:1:pos:R:3:forces:R:3 energy=-72.67679161278855 pbc="F F F"
Tb       0.00000000       0.00000000       0.00000000       0.00000000       0.00000000      -0.15783371
Tb       0.00000000       0.00000000       2.78181818       0.00000000       0.00000000       0.15783371
2
Properties=species:S:1:pos:R:3:forces:R:3 energy=-72.67090801723063 pbc="F F F"
Tb       0.00000000       0.00000000       0.00000000       0.00000000       0.00000000       0.33642268
Tb       0.00000000       0.00000000       2.84141414       0.00000000       0.00000000      -0.33642268
2
Properties=species:S:1:pos:R:3:forces:R:3 energy=-72.63910629139052 pbc="F F F"
Tb       0.00000000       0.00000000       0.00000000       0.00000000       0.00000000       0.71015221
Tb       0.00000000       0.00000000       2.90101010       0.00000000       0.00000000      -0.71015221
2
Properties=species:S:1:pos:R:3:forces:R:3 energy=-72.5886953413762 pbc="F F F"
Tb       0.00000000       0.00000000       0.00000000       0.00000000       0.00000000       0.96249151
Tb       0.00000000       0.00000000       2.96060606       0.00000000       0.00000000      -0.96249151
2
Properties=species:S:1:pos:R:3:forces:R:3 energy=-72.52642701978885 pbc="F F F"
Tb       0.00000000       0.00000000       0.00000000       0.00000000       0.00000000       1.11239314
Tb       0.00000000       0.00000000       3.02020202       0.00000000       0.00000000      -1.11239314
2
Properties=species:S:1:pos:R:3:forces:R:3 energy=-72.457573178061 pbc="F F F"
Tb       0.00000000       0.00000000       0.00000000       0.00000000       0.00000000       1.18797612
Tb       0.00000000       0.00000000       3.07979798       0.00000000       0.00000000      -1.18797612
2
Properties=species:S:1:pos:R:3:forces:R:3 energy=-72.38585680233277 pbc="F F F"
Tb       0.00000000       0.00000000       0.00000000       0.00000000       0.00000000       1.21107721
Tb       0.00000000       0.00000000       3.13939394       0.00000000       0.00000000      -1.21107721
2
Properties=species:S:1:pos:R:3:forces:R:3 energy=-72.31410828710146 pbc="F F F"
Tb       0.00000000       0.00000000       0.00000000       0.00000000       0.00000000       1.18947661
Tb       0.00000000       0.00000000       3.19898990       0.00000000       0.00000000      -1.18947661
2
Properties=species:S:1:pos:R:3:forces:R:3 energy=-72.2449825096085 pbc="F F F"
Tb       0.00000000       0.00000000       0.00000000       0.00000000       0.00000000       1.12259281
Tb       0.00000000       0.00000000       3.25858586       0.00000000       0.00000000      -1.12259281
2
Properties=species:S:1:pos:R:3:forces:R:3 energy=-72.18114197332201 pbc="F F F"
Tb       0.00000000       0.00000000       0.00000000       0.00000000       0.00000000       1.01391411
Tb       0.00000000       0.00000000       3.31818182       0.00000000       0.00000000      -1.01391411
2
Properties=species:S:1:pos:R:3:forces:R:3 energy=-72.1246617024921 pbc="F F F"
Tb       0.00000000       0.00000000       0.00000000       0.00000000       0.00000000       0.87903953
Tb       0.00000000       0.00000000       3.37777778       0.00000000       0.00000000      -0.87903953
2
Properties=species:S:1:pos:R:3:forces:R:3 energy=-72.07636549433009 pbc="F F F"
Tb       0.00000000       0.00000000       0.00000000       0.00000000       0.00000000       0.74438119
Tb       0.00000000       0.00000000       3.43737374       0.00000000       0.00000000      -0.74438119
2
Properties=species:S:1:pos:R:3:forces:R:3 energy=-72.03534525764961 pbc="F F F"
Tb       0.00000000       0.00000000       0.00000000       0.00000000       0.00000000       0.63944888
Tb       0.00000000       0.00000000       3.49696970       0.00000000       0.00000000      -0.63944888
2
Properties=species:S:1:pos:R:3:forces:R:3 energy=-71.99907546645586 pbc="F F F"
Tb       0.00000000       0.00000000       0.00000000       0.00000000       0.00000000       0.58817929
Tb       0.00000000       0.00000000       3.55656566       0.00000000       0.00000000      -0.58817929
2
Properties=species:S:1:pos:R:3:forces:R:3 energy=-71.96392431987569 pbc="F F F"
Tb       0.00000000       0.00000000       0.00000000       0.00000000       0.00000000       0.60259151
Tb       0.00000000       0.00000000       3.61616162       0.00000000       0.00000000      -0.60259151
2
Properties=species:S:1:pos:R:3:forces:R:3 energy=-71.92600063662884 pbc="F F F"
Tb       0.00000000       0.00000000       0.00000000       0.00000000       0.00000000       0.67925030
Tb       0.00000000       0.00000000       3.67575758       0.00000000       0.00000000      -0.67925030
2
Properties=species:S:1:pos:R:3:forces:R:3 energy=-71.88209983659334 pbc="F F F"
Tb       0.00000000       0.00000000       0.00000000       0.00000000       0.00000000       0.79878259
Tb       0.00000000       0.00000000       3.73535354       0.00000000       0.00000000      -0.79878259
2
Properties=species:S:1:pos:R:3:forces:R:3 energy=-71.83056611307272 pbc="F F F"
Tb       0.00000000       0.00000000       0.00000000       0.00000000       0.00000000       0.92981416
Tb       0.00000000       0.00000000       3.79494949       0.00000000       0.00000000      -0.92981416
2
Properties=species:S:1:pos:R:3:forces:R:3 energy=-71.77173492817533 pbc="F F F"
Tb       0.00000000       0.00000000       0.00000000       0.00000000       0.00000000       1.03810585
Tb       0.00000000       0.00000000       3.85454545       0.00000000       0.00000000      -1.03810585
2
Properties=species:S:1:pos:R:3:forces:R:3 energy=-71.7078032782613 pbc="F F F"
Tb       0.00000000       0.00000000       0.00000000       0.00000000       0.00000000       1.09796333
Tb       0.00000000       0.00000000       3.91414141       0.00000000       0.00000000      -1.09796333
2
Properties=species:S:1:pos:R:3:forces:R:3 energy=-71.64202865820187 pbc="F F F"
Tb       0.00000000       0.00000000       0.00000000       0.00000000       0.00000000       1.10001075
Tb       0.00000000       0.00000000       3.97373737       0.00000000       0.00000000      -1.10001075
2
Properties=species:S:1:pos:R:3:forces:R:3 energy=-71.57770667816273 pbc="F F F"
Tb       0.00000000       0.00000000       0.00000000       0.00000000       0.00000000       1.05126226
Tb       0.00000000       0.00000000       4.03333333       0.00000000       0.00000000      -1.05126226
2
Properties=species:S:1:pos:R:3:forces:R:3 energy=-71.5174005327702 pbc="F F F"
Tb       0.00000000       0.00000000       0.00000000       0.00000000       0.00000000       0.96858644
Tb       0.00000000       0.00000000       4.09292929       0.00000000       0.00000000      -0.96858644
2
Properties=species:S:1:pos:R:3:forces:R:3 energy=-71.46255949653866 pbc="F F F"
Tb       0.00000000       0.00000000       0.00000000       0.00000000       0.00000000       0.87052441
Tb       0.00000000       0.00000000       4.15252525       0.00000000       0.00000000      -0.87052441
2
Properties=species:S:1:pos:R:3:forces:R:3 energy=-71.41364865525576 pbc="F F F"
Tb       0.00000000       0.00000000       0.00000000       0.00000000       0.00000000       0.77175432
Tb       0.00000000       0.00000000       4.21212121       0.00000000       0.00000000      -0.77175432
2
Properties=species:S:1:pos:R:3:forces:R:3 energy=-71.3704006664985 pbc="F F F"
Tb       0.00000000       0.00000000       0.00000000       0.00000000       0.00000000       0.68151033
Tb       0.00000000       0.00000000       4.27171717       0.00000000       0.00000000      -0.68151033
2
Properties=species:S:1:pos:R:3:forces:R:3 energy=-71.33215144032135 pbc="F F F"
Tb       0.00000000       0.00000000       0.00000000       0.00000000       0.00000000       0.60472298
Tb       0.00000000       0.00000000       4.33131313       0.00000000       0.00000000      -0.60472298
2
Properties=species:S:1:pos:R:3:forces:R:3 energy=-71.29800799543938 pbc="F F F"
Tb       0.00000000       0.00000000       0.00000000       0.00000000       0.00000000       0.54375088
Tb       0.00000000       0.00000000       4.39090909       0.00000000       0.00000000      -0.54375088
2
Properties=species:S:1:pos:R:3:forces:R:3 energy=-71.26700106295795 pbc="F F F"
Tb       0.00000000       0.00000000       0.00000000       0.00000000       0.00000000       0.49957544
Tb       0.00000000       0.00000000       4.45050505       0.00000000       0.00000000      -0.49957544
2
Properties=species:S:1:pos:R:3:forces:R:3 energy=-71.23813084373303 pbc="F F F"
Tb       0.00000000       0.00000000       0.00000000       0.00000000       0.00000000       0.47199836
Tb       0.00000000       0.00000000       4.51010101       0.00000000       0.00000000      -0.47199836
2
Properties=species:S:1:pos:R:3:forces:R:3 energy=-71.21045093804668 pbc="F F F"
Tb       0.00000000       0.00000000       0.00000000       0.00000000       0.00000000       0.45930696
Tb       0.00000000       0.00000000       4.56969697       0.00000000       0.00000000      -0.45930696
2
Properties=species:S:1:pos:R:3:forces:R:3 energy=-71.18315990784484 pbc="F F F"
Tb       0.00000000       0.00000000       0.00000000       0.00000000       0.00000000       0.45796925
Tb       0.00000000       0.00000000       4.62929293       0.00000000       0.00000000      -0.45796925
2
Properties=species:S:1:pos:R:3:forces:R:3 energy=-71.1557385963355 pbc="F F F"
Tb       0.00000000       0.00000000       0.00000000       0.00000000       0.00000000       0.46285021
Tb       0.00000000       0.00000000       4.68888889       0.00000000       0.00000000      -0.46285021
2
Properties=species:S:1:pos:R:3:forces:R:3 energy=-71.12798066457368 pbc="F F F"
Tb       0.00000000       0.00000000       0.00000000       0.00000000       0.00000000       0.46815333
Tb       0.00000000       0.00000000       4.74848485       0.00000000       0.00000000      -0.46815333
2
Properties=species:S:1:pos:R:3:forces:R:3 energy=-71.10003070675596 pbc="F F F"
Tb       0.00000000       0.00000000       0.00000000       0.00000000       0.00000000       0.46880934
Tb       0.00000000       0.00000000       4.80808081       0.00000000       0.00000000      -0.46880934
2
Properties=species:S:1:pos:R:3:forces:R:3 energy=-71.07225460436631 pbc="F F F"
Tb       0.00000000       0.00000000       0.00000000       0.00000000       0.00000000       0.46187022
Tb       0.00000000       0.00000000       4.86767677       0.00000000       0.00000000      -0.46187022
2
Properties=species:S:1:pos:R:3:forces:R:3 energy=-71.04513266713542 pbc="F F F"
Tb       0.00000000       0.00000000       0.00000000       0.00000000       0.00000000       0.44733679
Tb       0.00000000       0.00000000       4.92727273       0.00000000       0.00000000      -0.44733679
2
Properties=species:S:1:pos:R:3:forces:R:3 energy=-71.01903841544527 pbc="F F F"
Tb       0.00000000       0.00000000       0.00000000       0.00000000       0.00000000       0.42804983
Tb       0.00000000       0.00000000       4.98686869       0.00000000       0.00000000      -0.42804983
2
Properties=species:S:1:pos:R:3:forces:R:3 energy=-70.99411650051321 pbc="F F F"
Tb       0.00000000       0.00000000       0.00000000       0.00000000       0.00000000       0.40856856
Tb       0.00000000       0.00000000       5.04646465       0.00000000       0.00000000      -0.40856856
2
Properties=species:S:1:pos:R:3:forces:R:3 energy=-70.97025219314948 pbc="F F F"
Tb       0.00000000       0.00000000       0.00000000       0.00000000       0.00000000       0.39328623
Tb       0.00000000       0.00000000       5.10606061       0.00000000       0.00000000      -0.39328623
2
Properties=species:S:1:pos:R:3:forces:R:3 energy=-70.94710953072979 pbc="F F F"
Tb       0.00000000       0.00000000       0.00000000       0.00000000       0.00000000       0.38423374
Tb       0.00000000       0.00000000       5.16565657       0.00000000       0.00000000      -0.38423374
2
Properties=species:S:1:pos:R:3:forces:R:3 energy=-70.92436784426499 pbc="F F F"
Tb       0.00000000       0.00000000       0.00000000       0.00000000       0.00000000       0.37936980
Tb       0.00000000       0.00000000       5.22525253       0.00000000       0.00000000      -0.37936980
2
Properties=species:S:1:pos:R:3:forces:R:3 energy=-70.90193535927318 pbc="F F F"
Tb       0.00000000       0.00000000       0.00000000       0.00000000       0.00000000       0.37238437
Tb       0.00000000       0.00000000       5.28484848       0.00000000       0.00000000      -0.37238437
2
Properties=species:S:1:pos:R:3:forces:R:3 energy=-70.88017048623492 pbc="F F F"
Tb       0.00000000       0.00000000       0.00000000       0.00000000       0.00000000       0.35600412
Tb       0.00000000       0.00000000       5.34444444       0.00000000       0.00000000      -0.35600412
2
Properties=species:S:1:pos:R:3:forces:R:3 energy=-70.85969105721959 pbc="F F F"
Tb       0.00000000       0.00000000       0.00000000       0.00000000       0.00000000       0.33083114
Tb       0.00000000       0.00000000       5.40404040       0.00000000       0.00000000      -0.33083114
2
Properties=species:S:1:pos:R:3:forces:R:3 energy=-70.8406571944777 pbc="F F F"
Tb       0.00000000       0.00000000       0.00000000       0.00000000       0.00000000       0.30928347
Tb       0.00000000       0.00000000       5.46363636       0.00000000       0.00000000      -0.30928347
2
Properties=species:S:1:pos:R:3:forces:R:3 energy=-70.82272551665062 pbc="F F F"
Tb       0.00000000       0.00000000       0.00000000       0.00000000       0.00000000       0.29209271
Tb       0.00000000       0.00000000       5.52323232       0.00000000       0.00000000      -0.29209271
2
Properties=species:S:1:pos:R:3:forces:R:3 energy=-70.80618593597882 pbc="F F F"
Tb       0.00000000       0.00000000       0.00000000       0.00000000       0.00000000       0.25881889
Tb       0.00000000       0.00000000       5.58282828       0.00000000       0.00000000      -0.25881889
2
Properties=species:S:1:pos:R:3:forces:R:3 energy=-70.79219052746645 pbc="F F F"
Tb       0.00000000       0.00000000       0.00000000       0.00000000       0.00000000       0.21081917
Tb       0.00000000       0.00000000       5.64242424       0.00000000       0.00000000      -0.21081917
2
Properties=species:S:1:pos:R:3:forces:R:3 energy=-70.78073939565165 pbc="F F F"
Tb       0.00000000       0.00000000       0.00000000       0.00000000       0.00000000       0.17805703
Tb       0.00000000       0.00000000       5.70202020       0.00000000       0.00000000      -0.17805703
2
Properties=species:S:1:pos:R:3:forces:R:3 energy=-70.7703831123807 pbc="F F F"
Tb       0.00000000       0.00000000       0.00000000       0.00000000       0.00000000       0.17224263
Tb       0.00000000       0.00000000       5.76161616       0.00000000       0.00000000      -0.17224263
2
Properties=species:S:1:pos:R:3:forces:R:3 energy=-70.76048864539982 pbc="F F F"
Tb       0.00000000       0.00000000       0.00000000       0.00000000       0.00000000       0.15323290
Tb       0.00000000       0.00000000       5.82121212       0.00000000       0.00000000      -0.15323290
2
Properties=species:S:1:pos:R:3:forces:R:3 energy=-70.75297888565099 pbc="F F F"
Tb       0.00000000       0.00000000       0.00000000       0.00000000       0.00000000       0.09465197
Tb       0.00000000       0.00000000       5.88080808       0.00000000       0.00000000      -0.09465197
2
Properties=species:S:1:pos:R:3:forces:R:3 energy=-70.74926560215991 pbc="F F F"
Tb       0.00000000       0.00000000       0.00000000       0.00000000       0.00000000       0.03173137
Tb       0.00000000       0.00000000       5.94040404       0.00000000       0.00000000      -0.03173137
2
Properties=species:S:1:pos:R:3:forces:R:3 energy=-70.74839552450749 pbc="F F F"
Tb       0.00000000       0.00000000       0.00000000       0.00000000       0.00000000       0.00623335
Tb       0.00000000       0.00000000       6.00000000       0.00000000       0.00000000      -0.00623335
