2
Properties=species:S:1:pos:R:3:forces:R:3 energy=-270867200.0302155 pbc="F F F"
Th       0.00000000       0.00000000       0.00000000       0.00000000       0.00000000 -240721.67187500
Th       0.00000000       0.00000000       0.10000000       0.00000000       0.00000000  240721.67187500
2
Properties=species:S:1:pos:R:3:forces:R:3 energy=-270543936.0302155 pbc="F F F"
Th       0.00000000       0.00000000       0.00000000       0.00000000       0.00000000 12575248.00000000
Th       0.00000000       0.00000000       0.15959596       0.00000000       0.00000000 -12575248.00000000
2
Properties=species:S:1:pos:R:3:forces:R:3 energy=-269065792.0302155 pbc="F F F"
Th       0.00000000       0.00000000       0.00000000       0.00000000       0.00000000 40487300.00000000
Th       0.00000000       0.00000000       0.21919192       0.00000000       0.00000000 -40487300.00000000
2
Properties=species:S:1:pos:R:3:forces:R:3 energy=-265191152.0302155 pbc="F F F"
Th       0.00000000       0.00000000       0.00000000       0.00000000       0.00000000 94779768.00000000
Th       0.00000000       0.00000000       0.27878788       0.00000000       0.00000000 -94779768.00000000
2
Properties=species:S:1:pos:R:3:forces:R:3 energy=-257065520.0302155 pbc="F F F"
Th       0.00000000       0.00000000       0.00000000       0.00000000       0.00000000 184300368.00000000
Th       0.00000000       0.00000000       0.33838384       0.00000000       0.00000000 -184300368.00000000
2
Properties=species:S:1:pos:R:3:forces:R:3 energy=-242459488.0302155 pbc="F F F"
Th       0.00000000       0.00000000       0.00000000       0.00000000       0.00000000 312081760.00000000
Th       0.00000000       0.00000000       0.39797980       0.00000000       0.00000000 -312081760.00000000
2
Properties=species:S:1:pos:R:3:forces:R:3 energy=-219276640.0302155 pbc="F F F"
Th       0.00000000       0.00000000       0.00000000       0.00000000       0.00000000 468869472.00000000
Th       0.00000000       0.00000000       0.45757576       0.00000000       0.00000000 -468869472.00000000
2
Properties=species:S:1:pos:R:3:forces:R:3 energy=-186534128.0302155 pbc="F F F"
Th       0.00000000       0.00000000       0.00000000       0.00000000       0.00000000 626618688.00000000
Th       0.00000000       0.00000000       0.51717172       0.00000000       0.00000000 -626618688.00000000
2
Properties=species:S:1:pos:R:3:forces:R:3 energy=-145510752.0302155 pbc="F F F"
Th       0.00000000       0.00000000       0.00000000       0.00000000       0.00000000 737884352.00000000
Th       0.00000000       0.00000000       0.57676768       0.00000000       0.00000000 -737884352.00000000
2
Properties=species:S:1:pos:R:3:forces:R:3 energy=-100585512.0302155 pbc="F F F"
Th       0.00000000       0.00000000       0.00000000       0.00000000       0.00000000 749420608.00000000
Th       0.00000000       0.00000000       0.63636364       0.00000000       0.00000000 -749420608.00000000
2
Properties=species:S:1:pos:R:3:forces:R:3 energy=-58757636.0302155 pbc="F F F"
Th       0.00000000       0.00000000       0.00000000       0.00000000       0.00000000 633467392.00000000
Th       0.00000000       0.00000000       0.69595960       0.00000000       0.00000000 -633467392.00000000
2
Properties=species:S:1:pos:R:3:forces:R:3 energy=-27044660.030215487 pbc="F F F"
Th       0.00000000       0.00000000       0.00000000       0.00000000       0.00000000 420833888.00000000
Th       0.00000000       0.00000000       0.75555556       0.00000000       0.00000000 -420833888.00000000
2
Properties=species:S:1:pos:R:3:forces:R:3 energy=-8766875.030215474 pbc="F F F"
Th       0.00000000       0.00000000       0.00000000       0.00000000       0.00000000 199727968.00000000
Th       0.00000000       0.00000000       0.81515152       0.00000000       0.00000000 -199727968.00000000
2
Properties=species:S:1:pos:R:3:forces:R:3 energy=-1630891.6552154543 pbc="F F F"
Th       0.00000000       0.00000000       0.00000000       0.00000000       0.00000000 56774544.00000000
Th       0.00000000       0.00000000       0.87474747       0.00000000       0.00000000 -56774544.00000000
2
Properties=species:S:1:pos:R:3:forces:R:3 energy=-109256.98334042258 pbc="F F F"
Th       0.00000000       0.00000000       0.00000000       0.00000000       0.00000000 6493547.00000000
Th       0.00000000       0.00000000       0.93434343       0.00000000       0.00000000 -6493547.00000000
2
Properties=species:S:1:pos:R:3:forces:R:3 energy=-515.939150931443 pbc="F F F"
Th       0.00000000       0.00000000       0.00000000       0.00000000       0.00000000   68351.17968750
Th       0.00000000       0.00000000       0.99393939       0.00000000       0.00000000  -68351.17968750
2
Properties=species:S:1:pos:R:3:forces:R:3 energy=-69.39199358682458 pbc="F F F"
Th       0.00000000       0.00000000       0.00000000       0.00000000       0.00000000   -1554.43334961
Th       0.00000000       0.00000000       1.05353535       0.00000000       0.00000000    1554.43334961
2
Properties=species:S:1:pos:R:3:forces:R:3 energy=-102.52660655424188 pbc="F F F"
Th       0.00000000       0.00000000       0.00000000       0.00000000       0.00000000     176.63706970
Th       0.00000000       0.00000000       1.11313131       0.00000000       0.00000000    -176.63706970
2
Properties=species:S:1:pos:R:3:forces:R:3 energy=-97.99770631272284 pbc="F F F"
Th       0.00000000       0.00000000       0.00000000       0.00000000       0.00000000      61.39428329
Th       0.00000000       0.00000000       1.17272727       0.00000000       0.00000000     -61.39428329
2
Properties=species:S:1:pos:R:3:forces:R:3 energy=-95.27841450533387 pbc="F F F"
Th       0.00000000       0.00000000       0.00000000       0.00000000       0.00000000      26.89707375
Th       0.00000000       0.00000000       1.23232323       0.00000000       0.00000000     -26.89707375
2
Properties=species:S:1:pos:R:3:forces:R:3 energy=-94.52841434694277 pbc="F F F"
Th       0.00000000       0.00000000       0.00000000       0.00000000       0.00000000       0.49848661
Th       0.00000000       0.00000000       1.29191919       0.00000000       0.00000000      -0.49848661
2
Properties=species:S:1:pos:R:3:forces:R:3 energy=-95.60501327163155 pbc="F F F"
Th       0.00000000       0.00000000       0.00000000       0.00000000       0.00000000     -42.07835007
Th       0.00000000       0.00000000       1.35151515       0.00000000       0.00000000      42.07835007
2
Properties=species:S:1:pos:R:3:forces:R:3 energy=-99.0095235225883 pbc="F F F"
Th       0.00000000       0.00000000       0.00000000       0.00000000       0.00000000     -64.71033478
Th       0.00000000       0.00000000       1.41111111       0.00000000       0.00000000      64.71033478
2
Properties=species:S:1:pos:R:3:forces:R:3 energy=-102.91502553147765 pbc="F F F"
Th       0.00000000       0.00000000       0.00000000       0.00000000       0.00000000     -65.47835541
Th       0.00000000       0.00000000       1.47070707       0.00000000       0.00000000      65.47835541
2
Properties=species:S:1:pos:R:3:forces:R:3 energy=-106.78937665597167 pbc="F F F"
Th       0.00000000       0.00000000       0.00000000       0.00000000       0.00000000     -64.58679962
Th       0.00000000       0.00000000       1.53030303       0.00000000       0.00000000      64.58679962
2
Properties=species:S:1:pos:R:3:forces:R:3 energy=-110.61879819370778 pbc="F F F"
Th       0.00000000       0.00000000       0.00000000       0.00000000       0.00000000     -63.90134048
Th       0.00000000       0.00000000       1.58989899       0.00000000       0.00000000      63.90134048
2
Properties=species:S:1:pos:R:3:forces:R:3 energy=-114.39306674017497 pbc="F F F"
Th       0.00000000       0.00000000       0.00000000       0.00000000       0.00000000     -62.61819458
Th       0.00000000       0.00000000       1.64949495       0.00000000       0.00000000      62.61819458
2
Properties=species:S:1:pos:R:3:forces:R:3 energy=-118.06655849706948 pbc="F F F"
Th       0.00000000       0.00000000       0.00000000       0.00000000       0.00000000     -60.50778580
Th       0.00000000       0.00000000       1.70909091       0.00000000       0.00000000      60.50778580
2
Properties=species:S:1:pos:R:3:forces:R:3 energy=-121.58239631865736 pbc="F F F"
Th       0.00000000       0.00000000       0.00000000       0.00000000       0.00000000     -57.31549835
Th       0.00000000       0.00000000       1.76868687       0.00000000       0.00000000      57.31549835
2
Properties=species:S:1:pos:R:3:forces:R:3 energy=-124.88388613933083 pbc="F F F"
Th       0.00000000       0.00000000       0.00000000       0.00000000       0.00000000     -53.32308960
Th       0.00000000       0.00000000       1.82828283       0.00000000       0.00000000      53.32308960
2
Properties=species:S:1:pos:R:3:forces:R:3 energy=-127.90491161657863 pbc="F F F"
Th       0.00000000       0.00000000       0.00000000       0.00000000       0.00000000     -47.71123886
Th       0.00000000       0.00000000       1.88787879       0.00000000       0.00000000      47.71123886
2
Properties=species:S:1:pos:R:3:forces:R:3 energy=-130.5368759169647 pbc="F F F"
Th       0.00000000       0.00000000       0.00000000       0.00000000       0.00000000     -40.45541763
Th       0.00000000       0.00000000       1.94747475       0.00000000       0.00000000      40.45541763
2
Properties=species:S:1:pos:R:3:forces:R:3 energy=-132.7240844350684 pbc="F F F"
Th       0.00000000       0.00000000       0.00000000       0.00000000       0.00000000     -33.03788376
Th       0.00000000       0.00000000       2.00707071       0.00000000       0.00000000      33.03788376
2
Properties=species:S:1:pos:R:3:forces:R:3 energy=-134.49320187309814 pbc="F F F"
Th       0.00000000       0.00000000       0.00000000       0.00000000       0.00000000     -26.51532745
Th       0.00000000       0.00000000       2.06666667       0.00000000       0.00000000      26.51532745
2
Properties=species:S:1:pos:R:3:forces:R:3 energy=-135.90617887663387 pbc="F F F"
Th       0.00000000       0.00000000       0.00000000       0.00000000       0.00000000     -21.07811165
Th       0.00000000       0.00000000       2.12626263       0.00000000       0.00000000      21.07811165
2
Properties=species:S:1:pos:R:3:forces:R:3 energy=-137.0247372094195 pbc="F F F"
Th       0.00000000       0.00000000       0.00000000       0.00000000       0.00000000     -16.60177803
Th       0.00000000       0.00000000       2.18585859       0.00000000       0.00000000      16.60177803
2
Properties=species:S:1:pos:R:3:forces:R:3 energy=-137.89918506414807 pbc="F F F"
Th       0.00000000       0.00000000       0.00000000       0.00000000       0.00000000     -12.84184074
Th       0.00000000       0.00000000       2.24545455       0.00000000       0.00000000      12.84184074
2
Properties=species:S:1:pos:R:3:forces:R:3 energy=-138.5651211418494 pbc="F F F"
Th       0.00000000       0.00000000       0.00000000       0.00000000       0.00000000      -9.57645226
Th       0.00000000       0.00000000       2.30505051       0.00000000       0.00000000       9.57645226
2
Properties=species:S:1:pos:R:3:forces:R:3 energy=-139.04821067187368 pbc="F F F"
Th       0.00000000       0.00000000       0.00000000       0.00000000       0.00000000      -6.69743919
Th       0.00000000       0.00000000       2.36464646       0.00000000       0.00000000       6.69743919
2
Properties=species:S:1:pos:R:3:forces:R:3 energy=-139.37125024389854 pbc="F F F"
Th       0.00000000       0.00000000       0.00000000       0.00000000       0.00000000      -4.21813154
Th       0.00000000       0.00000000       2.42424242       0.00000000       0.00000000       4.21813154
2
Properties=species:S:1:pos:R:3:forces:R:3 energy=-139.56175137857596 pbc="F F F"
Th       0.00000000       0.00000000       0.00000000       0.00000000       0.00000000      -2.28318238
Th       0.00000000       0.00000000       2.48383838       0.00000000       0.00000000       2.28318238
2
Properties=species:S:1:pos:R:3:forces:R:3 energy=-139.65789151228734 pbc="F F F"
Th       0.00000000       0.00000000       0.00000000       0.00000000       0.00000000      -1.07192051
Th       0.00000000       0.00000000       2.54343434       0.00000000       0.00000000       1.07192051
2
Properties=species:S:1:pos:R:3:forces:R:3 energy=-139.70378372818465 pbc="F F F"
Th       0.00000000       0.00000000       0.00000000       0.00000000       0.00000000      -0.56766766
Th       0.00000000       0.00000000       2.60303030       0.00000000       0.00000000       0.56766766
2
Properties=species:S:1:pos:R:3:forces:R:3 energy=-139.73348556742764 pbc="F F F"
Th       0.00000000       0.00000000       0.00000000       0.00000000       0.00000000      -0.45849887
Th       0.00000000       0.00000000       2.66262626       0.00000000       0.00000000       0.45849887
2
Properties=species:S:1:pos:R:3:forces:R:3 energy=-139.75776964639542 pbc="F F F"
Th       0.00000000       0.00000000       0.00000000       0.00000000       0.00000000      -0.32166582
Th       0.00000000       0.00000000       2.72222222       0.00000000       0.00000000       0.32166582
2
Properties=species:S:1:pos:R:3:forces:R:3 energy=-139.76572585804837 pbc="F F F"
Th       0.00000000       0.00000000       0.00000000       0.00000000       0.00000000       0.11241665
Th       0.00000000       0.00000000       2.78181818       0.00000000       0.00000000      -0.11241665
2
Properties=species:S:1:pos:R:3:forces:R:3 energy=-139.73854000143086 pbc="F F F"
Th       0.00000000       0.00000000       0.00000000       0.00000000       0.00000000       0.83225358
Th       0.00000000       0.00000000       2.84141414       0.00000000       0.00000000      -0.83225358
2
Properties=species:S:1:pos:R:3:forces:R:3 energy=-139.6653629824848 pbc="F F F"
Th       0.00000000       0.00000000       0.00000000       0.00000000       0.00000000       1.61010313
Th       0.00000000       0.00000000       2.90101010       0.00000000       0.00000000      -1.61010313
2
Properties=species:S:1:pos:R:3:forces:R:3 energy=-139.55055869133696 pbc="F F F"
Th       0.00000000       0.00000000       0.00000000       0.00000000       0.00000000       2.19579554
Th       0.00000000       0.00000000       2.96060606       0.00000000       0.00000000      -2.19579554
2
Properties=species:S:1:pos:R:3:forces:R:3 energy=-139.40967572950393 pbc="F F F"
Th       0.00000000       0.00000000       0.00000000       0.00000000       0.00000000       2.48324585
Th       0.00000000       0.00000000       3.02020202       0.00000000       0.00000000      -2.48324585
2
Properties=species:S:1:pos:R:3:forces:R:3 energy=-139.25933080106535 pbc="F F F"
Th       0.00000000       0.00000000       0.00000000       0.00000000       0.00000000       2.53404188
Th       0.00000000       0.00000000       3.07979798       0.00000000       0.00000000      -2.53404188
2
Properties=species:S:1:pos:R:3:forces:R:3 energy=-139.10948771471314 pbc="F F F"
Th       0.00000000       0.00000000       0.00000000       0.00000000       0.00000000       2.49160767
Th       0.00000000       0.00000000       3.13939394       0.00000000       0.00000000      -2.49160767
2
Properties=species:S:1:pos:R:3:forces:R:3 energy=-138.9615349157139 pbc="F F F"
Th       0.00000000       0.00000000       0.00000000       0.00000000       0.00000000       2.48800588
Th       0.00000000       0.00000000       3.19898990       0.00000000       0.00000000      -2.48800588
2
Properties=species:S:1:pos:R:3:forces:R:3 energy=-138.81072675911022 pbc="F F F"
Th       0.00000000       0.00000000       0.00000000       0.00000000       0.00000000       2.59331846
Th       0.00000000       0.00000000       3.25858586       0.00000000       0.00000000      -2.59331846
2
Properties=species:S:1:pos:R:3:forces:R:3 energy=-138.65028815565688 pbc="F F F"
Th       0.00000000       0.00000000       0.00000000       0.00000000       0.00000000       2.80481386
Th       0.00000000       0.00000000       3.31818182       0.00000000       0.00000000      -2.80481386
2
Properties=species:S:1:pos:R:3:forces:R:3 energy=-138.47541243157588 pbc="F F F"
Th       0.00000000       0.00000000       0.00000000       0.00000000       0.00000000       3.06568241
Th       0.00000000       0.00000000       3.37777778       0.00000000       0.00000000      -3.06568241
2
Properties=species:S:1:pos:R:3:forces:R:3 energy=-138.28542800374353 pbc="F F F"
Th       0.00000000       0.00000000       0.00000000       0.00000000       0.00000000       3.29944587
Th       0.00000000       0.00000000       3.43737374       0.00000000       0.00000000      -3.29944587
2
Properties=species:S:1:pos:R:3:forces:R:3 energy=-138.08393573413446 pbc="F F F"
Th       0.00000000       0.00000000       0.00000000       0.00000000       0.00000000       3.44478917
Th       0.00000000       0.00000000       3.49696970       0.00000000       0.00000000      -3.44478917
2
Properties=species:S:1:pos:R:3:forces:R:3 energy=-137.8770236800118 pbc="F F F"
Th       0.00000000       0.00000000       0.00000000       0.00000000       0.00000000       3.48155284
Th       0.00000000       0.00000000       3.55656566       0.00000000       0.00000000      -3.48155284
2
Properties=species:S:1:pos:R:3:forces:R:3 energy=-137.67061200127392 pbc="F F F"
Th       0.00000000       0.00000000       0.00000000       0.00000000       0.00000000       3.43626428
Th       0.00000000       0.00000000       3.61616162       0.00000000       0.00000000      -3.43626428
2
Properties=species:S:1:pos:R:3:forces:R:3 energy=-137.46807265588473 pbc="F F F"
Th       0.00000000       0.00000000       0.00000000       0.00000000       0.00000000       3.35936379
Th       0.00000000       0.00000000       3.67575758       0.00000000       0.00000000      -3.35936379
2
Properties=species:S:1:pos:R:3:forces:R:3 energy=-137.27003100710567 pbc="F F F"
Th       0.00000000       0.00000000       0.00000000       0.00000000       0.00000000       3.28975844
Th       0.00000000       0.00000000       3.73535354       0.00000000       0.00000000      -3.28975844
2
Properties=species:S:1:pos:R:3:forces:R:3 energy=-137.07564757444823 pbc="F F F"
Th       0.00000000       0.00000000       0.00000000       0.00000000       0.00000000       3.23471236
Th       0.00000000       0.00000000       3.79494949       0.00000000       0.00000000      -3.23471236
2
Properties=species:S:1:pos:R:3:forces:R:3 energy=-136.88455583019262 pbc="F F F"
Th       0.00000000       0.00000000       0.00000000       0.00000000       0.00000000       3.17535758
Th       0.00000000       0.00000000       3.85454545       0.00000000       0.00000000      -3.17535758
2
Properties=species:S:1:pos:R:3:forces:R:3 energy=-136.6977931534154 pbc="F F F"
Th       0.00000000       0.00000000       0.00000000       0.00000000       0.00000000       3.08549738
Th       0.00000000       0.00000000       3.91414141       0.00000000       0.00000000      -3.08549738
2
Properties=species:S:1:pos:R:3:forces:R:3 energy=-136.51775485721717 pbc="F F F"
Th       0.00000000       0.00000000       0.00000000       0.00000000       0.00000000       2.94737864
Th       0.00000000       0.00000000       3.97373737       0.00000000       0.00000000      -2.94737864
2
Properties=species:S:1:pos:R:3:forces:R:3 energy=-136.34752291921328 pbc="F F F"
Th       0.00000000       0.00000000       0.00000000       0.00000000       0.00000000       2.75782204
Th       0.00000000       0.00000000       4.03333333       0.00000000       0.00000000      -2.75782204
2
Properties=species:S:1:pos:R:3:forces:R:3 energy=-136.18987412223086 pbc="F F F"
Th       0.00000000       0.00000000       0.00000000       0.00000000       0.00000000       2.52723050
Th       0.00000000       0.00000000       4.09292929       0.00000000       0.00000000      -2.52723050
2
Properties=species:S:1:pos:R:3:forces:R:3 energy=-136.04671548228143 pbc="F F F"
Th       0.00000000       0.00000000       0.00000000       0.00000000       0.00000000       2.27566004
Th       0.00000000       0.00000000       4.15252525       0.00000000       0.00000000      -2.27566004
2
Properties=species:S:1:pos:R:3:forces:R:3 energy=-135.91856545923613 pbc="F F F"
Th       0.00000000       0.00000000       0.00000000       0.00000000       0.00000000       2.02729177
Th       0.00000000       0.00000000       4.21212121       0.00000000       0.00000000      -2.02729177
2
Properties=species:S:1:pos:R:3:forces:R:3 energy=-135.8045692219505 pbc="F F F"
Th       0.00000000       0.00000000       0.00000000       0.00000000       0.00000000       1.80395198
Th       0.00000000       0.00000000       4.27171717       0.00000000       0.00000000      -1.80395198
2
Properties=species:S:1:pos:R:3:forces:R:3 energy=-135.70277327795714 pbc="F F F"
Th       0.00000000       0.00000000       0.00000000       0.00000000       0.00000000       1.61974382
Th       0.00000000       0.00000000       4.33131313       0.00000000       0.00000000      -1.61974382
2
Properties=species:S:1:pos:R:3:forces:R:3 energy=-135.61064430713998 pbc="F F F"
Th       0.00000000       0.00000000       0.00000000       0.00000000       0.00000000       1.47873938
Th       0.00000000       0.00000000       4.39090909       0.00000000       0.00000000      -1.47873938
2
Properties=species:S:1:pos:R:3:forces:R:3 energy=-135.52574053578164 pbc="F F F"
Th       0.00000000       0.00000000       0.00000000       0.00000000       0.00000000       1.37613237
Th       0.00000000       0.00000000       4.45050505       0.00000000       0.00000000      -1.37613237
2
Properties=species:S:1:pos:R:3:forces:R:3 energy=-135.44607794116533 pbc="F F F"
Th       0.00000000       0.00000000       0.00000000       0.00000000       0.00000000       1.30111372
Th       0.00000000       0.00000000       4.51010101       0.00000000       0.00000000      -1.30111372
2
Properties=species:S:1:pos:R:3:forces:R:3 energy=-135.37038966682803 pbc="F F F"
Th       0.00000000       0.00000000       0.00000000       0.00000000       0.00000000       1.24019492
Th       0.00000000       0.00000000       4.56969697       0.00000000       0.00000000      -1.24019492
2
Properties=species:S:1:pos:R:3:forces:R:3 energy=-135.29823283408396 pbc="F F F"
Th       0.00000000       0.00000000       0.00000000       0.00000000       0.00000000       1.18040407
Th       0.00000000       0.00000000       4.62929293       0.00000000       0.00000000      -1.18040407
2
Properties=species:S:1:pos:R:3:forces:R:3 energy=-135.22986645270498 pbc="F F F"
Th       0.00000000       0.00000000       0.00000000       0.00000000       0.00000000       1.11208415
Th       0.00000000       0.00000000       4.68888889       0.00000000       0.00000000      -1.11208415
2
Properties=species:S:1:pos:R:3:forces:R:3 energy=-135.1659462863213 pbc="F F F"
Th       0.00000000       0.00000000       0.00000000       0.00000000       0.00000000       1.03097975
Th       0.00000000       0.00000000       4.74848485       0.00000000       0.00000000      -1.03097975
2
Properties=species:S:1:pos:R:3:forces:R:3 energy=-135.10720438300484 pbc="F F F"
Th       0.00000000       0.00000000       0.00000000       0.00000000       0.00000000       0.93881315
Th       0.00000000       0.00000000       4.80808081       0.00000000       0.00000000      -0.93881315
2
Properties=species:S:1:pos:R:3:forces:R:3 energy=-135.05412866287395 pbc="F F F"
Th       0.00000000       0.00000000       0.00000000       0.00000000       0.00000000       0.84197760
Th       0.00000000       0.00000000       4.86767677       0.00000000       0.00000000      -0.84197760
2
Properties=species:S:1:pos:R:3:forces:R:3 energy=-135.0067645506675 pbc="F F F"
Th       0.00000000       0.00000000       0.00000000       0.00000000       0.00000000       0.74912834
Th       0.00000000       0.00000000       4.92727273       0.00000000       0.00000000      -0.74912834
2
Properties=species:S:1:pos:R:3:forces:R:3 energy=-134.9645929212717 pbc="F F F"
Th       0.00000000       0.00000000       0.00000000       0.00000000       0.00000000       0.66865760
Th       0.00000000       0.00000000       4.98686869       0.00000000       0.00000000      -0.66865760
2
Properties=species:S:1:pos:R:3:forces:R:3 energy=-134.9266979337284 pbc="F F F"
Th       0.00000000       0.00000000       0.00000000       0.00000000       0.00000000       0.60715473
Th       0.00000000       0.00000000       5.04646465       0.00000000       0.00000000      -0.60715473
2
Properties=species:S:1:pos:R:3:forces:R:3 energy=-134.89178229319205 pbc="F F F"
Th       0.00000000       0.00000000       0.00000000       0.00000000       0.00000000       0.56850851
Th       0.00000000       0.00000000       5.10606061       0.00000000       0.00000000      -0.56850851
2
Properties=species:S:1:pos:R:3:forces:R:3 energy=-134.85847244888555 pbc="F F F"
Th       0.00000000       0.00000000       0.00000000       0.00000000       0.00000000       0.55249333
Th       0.00000000       0.00000000       5.16565657       0.00000000       0.00000000      -0.55249333
2
Properties=species:S:1:pos:R:3:forces:R:3 energy=-134.82560850000527 pbc="F F F"
Th       0.00000000       0.00000000       0.00000000       0.00000000       0.00000000       0.55204201
Th       0.00000000       0.00000000       5.22525253       0.00000000       0.00000000      -0.55204201
2
Properties=species:S:1:pos:R:3:forces:R:3 energy=-134.79267144656635 pbc="F F F"
Th       0.00000000       0.00000000       0.00000000       0.00000000       0.00000000       0.55162227
Th       0.00000000       0.00000000       5.28484848       0.00000000       0.00000000      -0.55162227
2
Properties=species:S:1:pos:R:3:forces:R:3 energy=-134.760164665465 pbc="F F F"
Th       0.00000000       0.00000000       0.00000000       0.00000000       0.00000000       0.53624171
Th       0.00000000       0.00000000       5.34444444       0.00000000       0.00000000      -0.53624171
2
Properties=species:S:1:pos:R:3:forces:R:3 energy=-134.72882046611855 pbc="F F F"
Th       0.00000000       0.00000000       0.00000000       0.00000000       0.00000000       0.51923770
Th       0.00000000       0.00000000       5.40404040       0.00000000       0.00000000      -0.51923770
2
Properties=species:S:1:pos:R:3:forces:R:3 energy=-134.69740282008868 pbc="F F F"
Th       0.00000000       0.00000000       0.00000000       0.00000000       0.00000000       0.54372305
Th       0.00000000       0.00000000       5.46363636       0.00000000       0.00000000      -0.54372305
2
Properties=species:S:1:pos:R:3:forces:R:3 energy=-134.66359236292752 pbc="F F F"
Th       0.00000000       0.00000000       0.00000000       0.00000000       0.00000000       0.58642727
Th       0.00000000       0.00000000       5.52323232       0.00000000       0.00000000      -0.58642727
2
Properties=species:S:1:pos:R:3:forces:R:3 energy=-134.6289913181717 pbc="F F F"
Th       0.00000000       0.00000000       0.00000000       0.00000000       0.00000000       0.55985546
Th       0.00000000       0.00000000       5.58282828       0.00000000       0.00000000      -0.55985546
2
Properties=species:S:1:pos:R:3:forces:R:3 energy=-134.59797904381344 pbc="F F F"
Th       0.00000000       0.00000000       0.00000000       0.00000000       0.00000000       0.48024198
Th       0.00000000       0.00000000       5.64242424       0.00000000       0.00000000      -0.48024198
2
Properties=species:S:1:pos:R:3:forces:R:3 energy=-134.57066251135114 pbc="F F F"
Th       0.00000000       0.00000000       0.00000000       0.00000000       0.00000000       0.45191014
Th       0.00000000       0.00000000       5.70202020       0.00000000       0.00000000      -0.45191014
2
Properties=species:S:1:pos:R:3:forces:R:3 energy=-134.542525339386 pbc="F F F"
Th       0.00000000       0.00000000       0.00000000       0.00000000       0.00000000       0.49561080
Th       0.00000000       0.00000000       5.76161616       0.00000000       0.00000000      -0.49561080
2
Properties=species:S:1:pos:R:3:forces:R:3 energy=-134.51329315957057 pbc="F F F"
Th       0.00000000       0.00000000       0.00000000       0.00000000       0.00000000       0.45802256
Th       0.00000000       0.00000000       5.82121212       0.00000000       0.00000000      -0.45802256
2
Properties=species:S:1:pos:R:3:forces:R:3 energy=-134.4910382150276 pbc="F F F"
Th       0.00000000       0.00000000       0.00000000       0.00000000       0.00000000       0.27559140
Th       0.00000000       0.00000000       5.88080808       0.00000000       0.00000000      -0.27559140
2
Properties=species:S:1:pos:R:3:forces:R:3 energy=-134.48055219159485 pbc="F F F"
Th       0.00000000       0.00000000       0.00000000       0.00000000       0.00000000       0.08381428
Th       0.00000000       0.00000000       5.94040404       0.00000000       0.00000000      -0.08381428
2
Properties=species:S:1:pos:R:3:forces:R:3 energy=-134.47863122507812 pbc="F F F"
Th       0.00000000       0.00000000       0.00000000       0.00000000       0.00000000       0.00671351
Th       0.00000000       0.00000000       6.00000000       0.00000000       0.00000000      -0.00671351
