2
Properties=species:S:1:pos:R:3:forces:R:3 energy=90090.77019190742 pbc="F F F"
Tl       0.00000000       0.00000000       0.00000000       0.00000000       0.00000000 -2279392.25000000
Tl       0.00000000       0.00000000       0.10000000       0.00000000       0.00000000 2279392.25000000
2
Properties=species:S:1:pos:R:3:forces:R:3 energy=24975.569020032413 pbc="F F F"
Tl       0.00000000       0.00000000       0.00000000       0.00000000       0.00000000 -463545.40625000
Tl       0.00000000       0.00000000       0.15959596       0.00000000       0.00000000  463545.40625000
2
Properties=species:S:1:pos:R:3:forces:R:3 energy=9305.893238782413 pbc="F F F"
Tl       0.00000000       0.00000000       0.00000000       0.00000000       0.00000000 -138296.21875000
Tl       0.00000000       0.00000000       0.21919192       0.00000000       0.00000000  138296.21875000
2
Properties=species:S:1:pos:R:3:forces:R:3 energy=4147.206227063664 pbc="F F F"
Tl       0.00000000       0.00000000       0.00000000       0.00000000       0.00000000  -51559.38671875
Tl       0.00000000       0.00000000       0.27878788       0.00000000       0.00000000   51559.38671875
2
Properties=species:S:1:pos:R:3:forces:R:3 energy=2062.059986829289 pbc="F F F"
Tl       0.00000000       0.00000000       0.00000000       0.00000000       0.00000000  -23323.86132812
Tl       0.00000000       0.00000000       0.33838384       0.00000000       0.00000000   23323.86132812
2
Properties=species:S:1:pos:R:3:forces:R:3 energy=1020.512867688664 pbc="F F F"
Tl       0.00000000       0.00000000       0.00000000       0.00000000       0.00000000  -13261.45507812
Tl       0.00000000       0.00000000       0.39797980       0.00000000       0.00000000   13261.45507812
2
Properties=species:S:1:pos:R:3:forces:R:3 energy=370.1290481085859 pbc="F F F"
Tl       0.00000000       0.00000000       0.00000000       0.00000000       0.00000000   -9009.57324219
Tl       0.00000000       0.00000000       0.45757576       0.00000000       0.00000000    9009.57324219
2
Properties=species:S:1:pos:R:3:forces:R:3 energy=-72.89412999120809 pbc="F F F"
Tl       0.00000000       0.00000000       0.00000000       0.00000000       0.00000000   -5845.55859375
Tl       0.00000000       0.00000000       0.51717172       0.00000000       0.00000000    5845.55859375
2
Properties=species:S:1:pos:R:3:forces:R:3 energy=-285.07441258160566 pbc="F F F"
Tl       0.00000000       0.00000000       0.00000000       0.00000000       0.00000000    2007.27636719
Tl       0.00000000       0.00000000       0.57676768       0.00000000       0.00000000   -2007.27636719
2
Properties=species:S:1:pos:R:3:forces:R:3 energy=-185.1549179511155 pbc="F F F"
Tl       0.00000000       0.00000000       0.00000000       0.00000000       0.00000000    1121.99462891
Tl       0.00000000       0.00000000       0.63636364       0.00000000       0.00000000   -1121.99462891
2
Properties=species:S:1:pos:R:3:forces:R:3 energy=-133.60424350947113 pbc="F F F"
Tl       0.00000000       0.00000000       0.00000000       0.00000000       0.00000000     956.68908691
Tl       0.00000000       0.00000000       0.69595960       0.00000000       0.00000000    -956.68908691
2
Properties=species:S:1:pos:R:3:forces:R:3 energy=-66.91199039192642 pbc="F F F"
Tl       0.00000000       0.00000000       0.00000000       0.00000000       0.00000000     875.90045166
Tl       0.00000000       0.00000000       0.75555556       0.00000000       0.00000000    -875.90045166
2
Properties=species:S:1:pos:R:3:forces:R:3 energy=-73.31957552804982 pbc="F F F"
Tl       0.00000000       0.00000000       0.00000000       0.00000000       0.00000000    -147.42199707
Tl       0.00000000       0.00000000       0.81515152       0.00000000       0.00000000     147.42199707
2
Properties=species:S:1:pos:R:3:forces:R:3 energy=-79.75437471050644 pbc="F F F"
Tl       0.00000000       0.00000000       0.00000000       0.00000000       0.00000000     -76.66713715
Tl       0.00000000       0.00000000       0.87474747       0.00000000       0.00000000      76.66713715
2
Properties=species:S:1:pos:R:3:forces:R:3 energy=-83.20867462142513 pbc="F F F"
Tl       0.00000000       0.00000000       0.00000000       0.00000000       0.00000000     -31.21717834
Tl       0.00000000       0.00000000       0.93434343       0.00000000       0.00000000      31.21717834
2
Properties=species:S:1:pos:R:3:forces:R:3 energy=-82.99749295941734 pbc="F F F"
Tl       0.00000000       0.00000000       0.00000000       0.00000000       0.00000000      23.97933960
Tl       0.00000000       0.00000000       0.99393939       0.00000000       0.00000000     -23.97933960
2
Properties=species:S:1:pos:R:3:forces:R:3 energy=-81.88935389123709 pbc="F F F"
Tl       0.00000000       0.00000000       0.00000000       0.00000000       0.00000000      10.36859322
Tl       0.00000000       0.00000000       1.05353535       0.00000000       0.00000000     -10.36859322
2
Properties=species:S:1:pos:R:3:forces:R:3 energy=-81.87227163728384 pbc="F F F"
Tl       0.00000000       0.00000000       0.00000000       0.00000000       0.00000000     -11.25566292
Tl       0.00000000       0.00000000       1.11313131       0.00000000       0.00000000      11.25566292
2
Properties=species:S:1:pos:R:3:forces:R:3 energy=-82.9580793860997 pbc="F F F"
Tl       0.00000000       0.00000000       0.00000000       0.00000000       0.00000000     -21.63580894
Tl       0.00000000       0.00000000       1.17272727       0.00000000       0.00000000      21.63580894
2
Properties=species:S:1:pos:R:3:forces:R:3 energy=-83.90793893950801 pbc="F F F"
Tl       0.00000000       0.00000000       0.00000000       0.00000000       0.00000000      -5.41868353
Tl       0.00000000       0.00000000       1.23232323       0.00000000       0.00000000       5.41868353
2
Properties=species:S:1:pos:R:3:forces:R:3 energy=-83.69797791568486 pbc="F F F"
Tl       0.00000000       0.00000000       0.00000000       0.00000000       0.00000000       6.27633524
Tl       0.00000000       0.00000000       1.29191919       0.00000000       0.00000000      -6.27633524
2
Properties=species:S:1:pos:R:3:forces:R:3 energy=-83.79044607048962 pbc="F F F"
Tl       0.00000000       0.00000000       0.00000000       0.00000000       0.00000000     -11.82596970
Tl       0.00000000       0.00000000       1.35151515       0.00000000       0.00000000      11.82596970
2
Properties=species:S:1:pos:R:3:forces:R:3 energy=-85.0957514152303 pbc="F F F"
Tl       0.00000000       0.00000000       0.00000000       0.00000000       0.00000000     -29.84685135
Tl       0.00000000       0.00000000       1.41111111       0.00000000       0.00000000      29.84685135
2
Properties=species:S:1:pos:R:3:forces:R:3 energy=-87.03167959285425 pbc="F F F"
Tl       0.00000000       0.00000000       0.00000000       0.00000000       0.00000000     -32.99541473
Tl       0.00000000       0.00000000       1.47070707       0.00000000       0.00000000      32.99541473
2
Properties=species:S:1:pos:R:3:forces:R:3 energy=-88.88642334446533 pbc="F F F"
Tl       0.00000000       0.00000000       0.00000000       0.00000000       0.00000000     -28.78577614
Tl       0.00000000       0.00000000       1.53030303       0.00000000       0.00000000      28.78577614
2
Properties=species:S:1:pos:R:3:forces:R:3 energy=-90.46131322855027 pbc="F F F"
Tl       0.00000000       0.00000000       0.00000000       0.00000000       0.00000000     -24.36739731
Tl       0.00000000       0.00000000       1.58989899       0.00000000       0.00000000      24.36739731
2
Properties=species:S:1:pos:R:3:forces:R:3 energy=-91.83887640020988 pbc="F F F"
Tl       0.00000000       0.00000000       0.00000000       0.00000000       0.00000000     -22.24531937
Tl       0.00000000       0.00000000       1.64949495       0.00000000       0.00000000      22.24531937
2
Properties=species:S:1:pos:R:3:forces:R:3 energy=-93.14342620601681 pbc="F F F"
Tl       0.00000000       0.00000000       0.00000000       0.00000000       0.00000000     -21.65158844
Tl       0.00000000       0.00000000       1.70909091       0.00000000       0.00000000      21.65158844
2
Properties=species:S:1:pos:R:3:forces:R:3 energy=-94.42051774646197 pbc="F F F"
Tl       0.00000000       0.00000000       0.00000000       0.00000000       0.00000000     -21.14220810
Tl       0.00000000       0.00000000       1.76868687       0.00000000       0.00000000      21.14220810
2
Properties=species:S:1:pos:R:3:forces:R:3 energy=-95.65296961555748 pbc="F F F"
Tl       0.00000000       0.00000000       0.00000000       0.00000000       0.00000000     -20.12893105
Tl       0.00000000       0.00000000       1.82828283       0.00000000       0.00000000      20.12893105
2
Properties=species:S:1:pos:R:3:forces:R:3 energy=-96.81075250534099 pbc="F F F"
Tl       0.00000000       0.00000000       0.00000000       0.00000000       0.00000000     -18.66613007
Tl       0.00000000       0.00000000       1.88787879       0.00000000       0.00000000      18.66613007
2
Properties=species:S:1:pos:R:3:forces:R:3 energy=-97.87237439874666 pbc="F F F"
Tl       0.00000000       0.00000000       0.00000000       0.00000000       0.00000000     -16.92707634
Tl       0.00000000       0.00000000       1.94747475       0.00000000       0.00000000      16.92707634
2
Properties=species:S:1:pos:R:3:forces:R:3 energy=-98.82555195553205 pbc="F F F"
Tl       0.00000000       0.00000000       0.00000000       0.00000000       0.00000000     -15.04828548
Tl       0.00000000       0.00000000       2.00707071       0.00000000       0.00000000      15.04828548
2
Properties=species:S:1:pos:R:3:forces:R:3 energy=-99.66573041369874 pbc="F F F"
Tl       0.00000000       0.00000000       0.00000000       0.00000000       0.00000000     -13.15549088
Tl       0.00000000       0.00000000       2.06666667       0.00000000       0.00000000      13.15549088
2
Properties=species:S:1:pos:R:3:forces:R:3 energy=-100.39566397279317 pbc="F F F"
Tl       0.00000000       0.00000000       0.00000000       0.00000000       0.00000000     -11.36586380
Tl       0.00000000       0.00000000       2.12626263       0.00000000       0.00000000      11.36586380
2
Properties=species:S:1:pos:R:3:forces:R:3 energy=-101.02408065065565 pbc="F F F"
Tl       0.00000000       0.00000000       0.00000000       0.00000000       0.00000000      -9.75698566
Tl       0.00000000       0.00000000       2.18585859       0.00000000       0.00000000       9.75698566
2
Properties=species:S:1:pos:R:3:forces:R:3 energy=-101.56262289383739 pbc="F F F"
Tl       0.00000000       0.00000000       0.00000000       0.00000000       0.00000000      -8.34818745
Tl       0.00000000       0.00000000       2.24545455       0.00000000       0.00000000       8.34818745
2
Properties=species:S:1:pos:R:3:forces:R:3 energy=-102.02255934181969 pbc="F F F"
Tl       0.00000000       0.00000000       0.00000000       0.00000000       0.00000000      -7.11205339
Tl       0.00000000       0.00000000       2.30505051       0.00000000       0.00000000       7.11205339
2
Properties=species:S:1:pos:R:3:forces:R:3 energy=-102.41280878215218 pbc="F F F"
Tl       0.00000000       0.00000000       0.00000000       0.00000000       0.00000000      -6.00144863
Tl       0.00000000       0.00000000       2.36464646       0.00000000       0.00000000       6.00144863
2
Properties=species:S:1:pos:R:3:forces:R:3 energy=-102.73952817581937 pbc="F F F"
Tl       0.00000000       0.00000000       0.00000000       0.00000000       0.00000000      -4.97439718
Tl       0.00000000       0.00000000       2.42424242       0.00000000       0.00000000       4.97439718
2
Properties=species:S:1:pos:R:3:forces:R:3 energy=-103.00693669916622 pbc="F F F"
Tl       0.00000000       0.00000000       0.00000000       0.00000000       0.00000000      -4.00964975
Tl       0.00000000       0.00000000       2.48383838       0.00000000       0.00000000       4.00964975
2
Properties=species:S:1:pos:R:3:forces:R:3 energy=-103.21874236385584 pbc="F F F"
Tl       0.00000000       0.00000000       0.00000000       0.00000000       0.00000000      -3.11078691
Tl       0.00000000       0.00000000       2.54343434       0.00000000       0.00000000       3.11078691
2
Properties=species:S:1:pos:R:3:forces:R:3 energy=-103.3794620304202 pbc="F F F"
Tl       0.00000000       0.00000000       0.00000000       0.00000000       0.00000000      -2.29967523
Tl       0.00000000       0.00000000       2.60303030       0.00000000       0.00000000       2.29967523
2
Properties=species:S:1:pos:R:3:forces:R:3 energy=-103.4951232088108 pbc="F F F"
Tl       0.00000000       0.00000000       0.00000000       0.00000000       0.00000000      -1.60277414
Tl       0.00000000       0.00000000       2.66262626       0.00000000       0.00000000       1.60277414
2
Properties=species:S:1:pos:R:3:forces:R:3 energy=-103.57310391159758 pbc="F F F"
Tl       0.00000000       0.00000000       0.00000000       0.00000000       0.00000000      -1.03660953
Tl       0.00000000       0.00000000       2.72222222       0.00000000       0.00000000       1.03660953
2
Properties=species:S:1:pos:R:3:forces:R:3 energy=-103.62125525459086 pbc="F F F"
Tl       0.00000000       0.00000000       0.00000000       0.00000000       0.00000000      -0.59965664
Tl       0.00000000       0.00000000       2.78181818       0.00000000       0.00000000       0.59965664
2
Properties=species:S:1:pos:R:3:forces:R:3 energy=-103.6468026672217 pbc="F F F"
Tl       0.00000000       0.00000000       0.00000000       0.00000000       0.00000000      -0.27441835
Tl       0.00000000       0.00000000       2.84141414       0.00000000       0.00000000       0.27441835
2
Properties=species:S:1:pos:R:3:forces:R:3 energy=-103.65569732827437 pbc="F F F"
Tl       0.00000000       0.00000000       0.00000000       0.00000000       0.00000000      -0.03655833
Tl       0.00000000       0.00000000       2.90101010       0.00000000       0.00000000       0.03655833
2
Properties=species:S:1:pos:R:3:forces:R:3 energy=-103.65244810141893 pbc="F F F"
Tl       0.00000000       0.00000000       0.00000000       0.00000000       0.00000000       0.13629118
Tl       0.00000000       0.00000000       2.96060606       0.00000000       0.00000000      -0.13629118
2
Properties=species:S:1:pos:R:3:forces:R:3 energy=-103.64041129460425 pbc="F F F"
Tl       0.00000000       0.00000000       0.00000000       0.00000000       0.00000000       0.26070943
Tl       0.00000000       0.00000000       3.02020202       0.00000000       0.00000000      -0.26070943
2
Properties=species:S:1:pos:R:3:forces:R:3 energy=-103.62209587702097 pbc="F F F"
Tl       0.00000000       0.00000000       0.00000000       0.00000000       0.00000000       0.34862331
Tl       0.00000000       0.00000000       3.07979798       0.00000000       0.00000000      -0.34862331
2
Properties=species:S:1:pos:R:3:forces:R:3 energy=-103.59938500080774 pbc="F F F"
Tl       0.00000000       0.00000000       0.00000000       0.00000000       0.00000000       0.41016921
Tl       0.00000000       0.00000000       3.13939394       0.00000000       0.00000000      -0.41016921
2
Properties=species:S:1:pos:R:3:forces:R:3 energy=-103.57353657601104 pbc="F F F"
Tl       0.00000000       0.00000000       0.00000000       0.00000000       0.00000000       0.45529082
Tl       0.00000000       0.00000000       3.19898990       0.00000000       0.00000000      -0.45529082
2
Properties=species:S:1:pos:R:3:forces:R:3 energy=-103.54525259879453 pbc="F F F"
Tl       0.00000000       0.00000000       0.00000000       0.00000000       0.00000000       0.49325493
Tl       0.00000000       0.00000000       3.25858586       0.00000000       0.00000000      -0.49325493
2
Properties=species:S:1:pos:R:3:forces:R:3 energy=-103.51474786429932 pbc="F F F"
Tl       0.00000000       0.00000000       0.00000000       0.00000000       0.00000000       0.53090590
Tl       0.00000000       0.00000000       3.31818182       0.00000000       0.00000000      -0.53090590
2
Properties=species:S:1:pos:R:3:forces:R:3 energy=-103.48191720351774 pbc="F F F"
Tl       0.00000000       0.00000000       0.00000000       0.00000000       0.00000000       0.57129276
Tl       0.00000000       0.00000000       3.37777778       0.00000000       0.00000000      -0.57129276
2
Properties=species:S:1:pos:R:3:forces:R:3 energy=-103.44661634220328 pbc="F F F"
Tl       0.00000000       0.00000000       0.00000000       0.00000000       0.00000000       0.61364543
Tl       0.00000000       0.00000000       3.43737374       0.00000000       0.00000000      -0.61364543
2
Properties=species:S:1:pos:R:3:forces:R:3 energy=-103.4087979359168 pbc="F F F"
Tl       0.00000000       0.00000000       0.00000000       0.00000000       0.00000000       0.65476108
Tl       0.00000000       0.00000000       3.49696970       0.00000000       0.00000000      -0.65476108
2
Properties=species:S:1:pos:R:3:forces:R:3 energy=-103.36867241374848 pbc="F F F"
Tl       0.00000000       0.00000000       0.00000000       0.00000000       0.00000000       0.69097912
Tl       0.00000000       0.00000000       3.55656566       0.00000000       0.00000000      -0.69097912
2
Properties=species:S:1:pos:R:3:forces:R:3 energy=-103.32658800906341 pbc="F F F"
Tl       0.00000000       0.00000000       0.00000000       0.00000000       0.00000000       0.71983755
Tl       0.00000000       0.00000000       3.61616162       0.00000000       0.00000000      -0.71983755
2
Properties=species:S:1:pos:R:3:forces:R:3 energy=-103.28303201712694 pbc="F F F"
Tl       0.00000000       0.00000000       0.00000000       0.00000000       0.00000000       0.74076849
Tl       0.00000000       0.00000000       3.67575758       0.00000000       0.00000000      -0.74076849
2
Properties=species:S:1:pos:R:3:forces:R:3 energy=-103.23843212119229 pbc="F F F"
Tl       0.00000000       0.00000000       0.00000000       0.00000000       0.00000000       0.75484991
Tl       0.00000000       0.00000000       3.73535354       0.00000000       0.00000000      -0.75484991
2
Properties=species:S:1:pos:R:3:forces:R:3 energy=-103.19315544215385 pbc="F F F"
Tl       0.00000000       0.00000000       0.00000000       0.00000000       0.00000000       0.76401514
Tl       0.00000000       0.00000000       3.79494949       0.00000000       0.00000000      -0.76401514
2
Properties=species:S:1:pos:R:3:forces:R:3 energy=-103.14742410281217 pbc="F F F"
Tl       0.00000000       0.00000000       0.00000000       0.00000000       0.00000000       0.77017081
Tl       0.00000000       0.00000000       3.85454545       0.00000000       0.00000000      -0.77017081
2
Properties=species:S:1:pos:R:3:forces:R:3 energy=-103.10139125572218 pbc="F F F"
Tl       0.00000000       0.00000000       0.00000000       0.00000000       0.00000000       0.77458519
Tl       0.00000000       0.00000000       3.91414141       0.00000000       0.00000000      -0.77458519
2
Properties=species:S:1:pos:R:3:forces:R:3 energy=-103.05512593131812 pbc="F F F"
Tl       0.00000000       0.00000000       0.00000000       0.00000000       0.00000000       0.77766061
Tl       0.00000000       0.00000000       3.97373737       0.00000000       0.00000000      -0.77766061
2
Properties=species:S:1:pos:R:3:forces:R:3 energy=-103.00873511852146 pbc="F F F"
Tl       0.00000000       0.00000000       0.00000000       0.00000000       0.00000000       0.77903229
Tl       0.00000000       0.00000000       4.03333333       0.00000000       0.00000000      -0.77903229
2
Properties=species:S:1:pos:R:3:forces:R:3 energy=-102.96232568904425 pbc="F F F"
Tl       0.00000000       0.00000000       0.00000000       0.00000000       0.00000000       0.77791089
Tl       0.00000000       0.00000000       4.09292929       0.00000000       0.00000000      -0.77791089
2
Properties=species:S:1:pos:R:3:forces:R:3 energy=-102.91608072380464 pbc="F F F"
Tl       0.00000000       0.00000000       0.00000000       0.00000000       0.00000000       0.77346426
Tl       0.00000000       0.00000000       4.15252525       0.00000000       0.00000000      -0.77346426
2
Properties=species:S:1:pos:R:3:forces:R:3 energy=-102.87021378486891 pbc="F F F"
Tl       0.00000000       0.00000000       0.00000000       0.00000000       0.00000000       0.76509523
Tl       0.00000000       0.00000000       4.21212121       0.00000000       0.00000000      -0.76509523
2
Properties=species:S:1:pos:R:3:forces:R:3 energy=-102.82496890753198 pbc="F F F"
Tl       0.00000000       0.00000000       0.00000000       0.00000000       0.00000000       0.75258583
Tl       0.00000000       0.00000000       4.27171717       0.00000000       0.00000000      -0.75258583
2
Properties=species:S:1:pos:R:3:forces:R:3 energy=-102.78059012233705 pbc="F F F"
Tl       0.00000000       0.00000000       0.00000000       0.00000000       0.00000000       0.73605835
Tl       0.00000000       0.00000000       4.33131313       0.00000000       0.00000000      -0.73605835
2
Properties=species:S:1:pos:R:3:forces:R:3 energy=-102.73730615906456 pbc="F F F"
Tl       0.00000000       0.00000000       0.00000000       0.00000000       0.00000000       0.71583968
Tl       0.00000000       0.00000000       4.39090909       0.00000000       0.00000000      -0.71583968
2
Properties=species:S:1:pos:R:3:forces:R:3 energy=-102.69533049979331 pbc="F F F"
Tl       0.00000000       0.00000000       0.00000000       0.00000000       0.00000000       0.69226837
Tl       0.00000000       0.00000000       4.45050505       0.00000000       0.00000000      -0.69226837
2
Properties=species:S:1:pos:R:3:forces:R:3 energy=-102.65486138048433 pbc="F F F"
Tl       0.00000000       0.00000000       0.00000000       0.00000000       0.00000000       0.66555536
Tl       0.00000000       0.00000000       4.51010101       0.00000000       0.00000000      -0.66555536
2
Properties=species:S:1:pos:R:3:forces:R:3 energy=-102.61606647279513 pbc="F F F"
Tl       0.00000000       0.00000000       0.00000000       0.00000000       0.00000000       0.63567090
Tl       0.00000000       0.00000000       4.56969697       0.00000000       0.00000000      -0.63567090
2
Properties=species:S:1:pos:R:3:forces:R:3 energy=-102.57915928414705 pbc="F F F"
Tl       0.00000000       0.00000000       0.00000000       0.00000000       0.00000000       0.60235566
Tl       0.00000000       0.00000000       4.62929293       0.00000000       0.00000000      -0.60235566
2
Properties=species:S:1:pos:R:3:forces:R:3 energy=-102.54434564346573 pbc="F F F"
Tl       0.00000000       0.00000000       0.00000000       0.00000000       0.00000000       0.56523561
Tl       0.00000000       0.00000000       4.68888889       0.00000000       0.00000000      -0.56523561
2
Properties=species:S:1:pos:R:3:forces:R:3 energy=-102.5118695654552 pbc="F F F"
Tl       0.00000000       0.00000000       0.00000000       0.00000000       0.00000000       0.52404845
Tl       0.00000000       0.00000000       4.74848485       0.00000000       0.00000000      -0.52404845
2
Properties=species:S:1:pos:R:3:forces:R:3 energy=-102.4819598218696 pbc="F F F"
Tl       0.00000000       0.00000000       0.00000000       0.00000000       0.00000000       0.47905043
Tl       0.00000000       0.00000000       4.80808081       0.00000000       0.00000000      -0.47905043
2
Properties=species:S:1:pos:R:3:forces:R:3 energy=-102.45482227331271 pbc="F F F"
Tl       0.00000000       0.00000000       0.00000000       0.00000000       0.00000000       0.43141156
Tl       0.00000000       0.00000000       4.86767677       0.00000000       0.00000000      -0.43141156
2
Properties=species:S:1:pos:R:3:forces:R:3 energy=-102.4305483846119 pbc="F F F"
Tl       0.00000000       0.00000000       0.00000000       0.00000000       0.00000000       0.38353202
Tl       0.00000000       0.00000000       4.92727273       0.00000000       0.00000000      -0.38353202
2
Properties=species:S:1:pos:R:3:forces:R:3 energy=-102.40904651433371 pbc="F F F"
Tl       0.00000000       0.00000000       0.00000000       0.00000000       0.00000000       0.33894864
Tl       0.00000000       0.00000000       4.98686869       0.00000000       0.00000000      -0.33894864
2
Properties=species:S:1:pos:R:3:forces:R:3 energy=-102.3900038074092 pbc="F F F"
Tl       0.00000000       0.00000000       0.00000000       0.00000000       0.00000000       0.30171806
Tl       0.00000000       0.00000000       5.04646465       0.00000000       0.00000000      -0.30171806
2
Properties=species:S:1:pos:R:3:forces:R:3 energy=-102.37287088803545 pbc="F F F"
Tl       0.00000000       0.00000000       0.00000000       0.00000000       0.00000000       0.27509099
Tl       0.00000000       0.00000000       5.10606061       0.00000000       0.00000000      -0.27509099
2
Properties=species:S:1:pos:R:3:forces:R:3 energy=-102.35698397750544 pbc="F F F"
Tl       0.00000000       0.00000000       0.00000000       0.00000000       0.00000000       0.25980899
Tl       0.00000000       0.00000000       5.16565657       0.00000000       0.00000000      -0.25980899
2
Properties=species:S:1:pos:R:3:forces:R:3 energy=-102.34174037345007 pbc="F F F"
Tl       0.00000000       0.00000000       0.00000000       0.00000000       0.00000000       0.25239170
Tl       0.00000000       0.00000000       5.22525253       0.00000000       0.00000000      -0.25239170
2
Properties=species:S:1:pos:R:3:forces:R:3 energy=-102.3269035733504 pbc="F F F"
Tl       0.00000000       0.00000000       0.00000000       0.00000000       0.00000000       0.24454835
Tl       0.00000000       0.00000000       5.28484848       0.00000000       0.00000000      -0.24454835
2
Properties=species:S:1:pos:R:3:forces:R:3 energy=-102.31279407196537 pbc="F F F"
Tl       0.00000000       0.00000000       0.00000000       0.00000000       0.00000000       0.22699066
Tl       0.00000000       0.00000000       5.34444444       0.00000000       0.00000000      -0.22699066
2
Properties=species:S:1:pos:R:3:forces:R:3 energy=-102.30000705314329 pbc="F F F"
Tl       0.00000000       0.00000000       0.00000000       0.00000000       0.00000000       0.20264304
Tl       0.00000000       0.00000000       5.40404040       0.00000000       0.00000000      -0.20264304
2
Properties=species:S:1:pos:R:3:forces:R:3 energy=-102.28827560607695 pbc="F F F"
Tl       0.00000000       0.00000000       0.00000000       0.00000000       0.00000000       0.19616891
Tl       0.00000000       0.00000000       5.46363636       0.00000000       0.00000000      -0.19616891
2
Properties=species:S:1:pos:R:3:forces:R:3 energy=-102.2761121263376 pbc="F F F"
Tl       0.00000000       0.00000000       0.00000000       0.00000000       0.00000000       0.21312958
Tl       0.00000000       0.00000000       5.52323232       0.00000000       0.00000000      -0.21312958
2
Properties=species:S:1:pos:R:3:forces:R:3 energy=-102.26328029909972 pbc="F F F"
Tl       0.00000000       0.00000000       0.00000000       0.00000000       0.00000000       0.21137783
Tl       0.00000000       0.00000000       5.58282828       0.00000000       0.00000000      -0.21137783
2
Properties=species:S:1:pos:R:3:forces:R:3 energy=-102.25147405110599 pbc="F F F"
Tl       0.00000000       0.00000000       0.00000000       0.00000000       0.00000000       0.18376252
Tl       0.00000000       0.00000000       5.64242424       0.00000000       0.00000000      -0.18376252
2
Properties=species:S:1:pos:R:3:forces:R:3 energy=-102.24099879018061 pbc="F F F"
Tl       0.00000000       0.00000000       0.00000000       0.00000000       0.00000000       0.17413309
Tl       0.00000000       0.00000000       5.70202020       0.00000000       0.00000000      -0.17413309
2
Properties=species:S:1:pos:R:3:forces:R:3 energy=-102.22993218291832 pbc="F F F"
Tl       0.00000000       0.00000000       0.00000000       0.00000000       0.00000000       0.20063174
Tl       0.00000000       0.00000000       5.76161616       0.00000000       0.00000000      -0.20063174
2
Properties=species:S:1:pos:R:3:forces:R:3 energy=-102.21767179304712 pbc="F F F"
Tl       0.00000000       0.00000000       0.00000000       0.00000000       0.00000000       0.19869046
Tl       0.00000000       0.00000000       5.82121212       0.00000000       0.00000000      -0.19869046
2
Properties=species:S:1:pos:R:3:forces:R:3 energy=-102.20776562085338 pbc="F F F"
Tl       0.00000000       0.00000000       0.00000000       0.00000000       0.00000000       0.12569867
Tl       0.00000000       0.00000000       5.88080808       0.00000000       0.00000000      -0.12569867
2
Properties=species:S:1:pos:R:3:forces:R:3 energy=-102.20293007133114 pbc="F F F"
Tl       0.00000000       0.00000000       0.00000000       0.00000000       0.00000000       0.03895276
Tl       0.00000000       0.00000000       5.94040404       0.00000000       0.00000000      -0.03895276
2
Properties=species:S:1:pos:R:3:forces:R:3 energy=-102.2020439901597 pbc="F F F"
Tl       0.00000000       0.00000000       0.00000000       0.00000000       0.00000000       0.00298182
Tl       0.00000000       0.00000000       6.00000000       0.00000000       0.00000000      -0.00298182
