2
Properties=species:S:1:pos:R:3:forces:R:3 energy=6142865.470942508 pbc="F F F"
U        0.00000000       0.00000000       0.00000000       0.00000000       0.00000000 -2856694.50000000
U        0.00000000       0.00000000       0.10000000       0.00000000       0.00000000 2856694.50000000
2
Properties=species:S:1:pos:R:3:forces:R:3 energy=6055568.970942508 pbc="F F F"
U        0.00000000       0.00000000       0.00000000       0.00000000       0.00000000 -811433.50000000
U        0.00000000       0.00000000       0.15959596       0.00000000       0.00000000  811433.50000000
2
Properties=species:S:1:pos:R:3:forces:R:3 energy=6008034.470942508 pbc="F F F"
U        0.00000000       0.00000000       0.00000000       0.00000000       0.00000000 -940581.18750000
U        0.00000000       0.00000000       0.21919192       0.00000000       0.00000000  940581.18750000
2
Properties=species:S:1:pos:R:3:forces:R:3 energy=5927881.970942508 pbc="F F F"
U        0.00000000       0.00000000       0.00000000       0.00000000       0.00000000 -1871949.62500000
U        0.00000000       0.00000000       0.27878788       0.00000000       0.00000000 1871949.62500000
2
Properties=species:S:1:pos:R:3:forces:R:3 energy=5770122.970942508 pbc="F F F"
U        0.00000000       0.00000000       0.00000000       0.00000000       0.00000000 -3554281.50000000
U        0.00000000       0.00000000       0.33838384       0.00000000       0.00000000 3554281.50000000
2
Properties=species:S:1:pos:R:3:forces:R:3 energy=5488872.470942508 pbc="F F F"
U        0.00000000       0.00000000       0.00000000       0.00000000       0.00000000 -6009934.50000000
U        0.00000000       0.00000000       0.39797980       0.00000000       0.00000000 6009934.50000000
2
Properties=species:S:1:pos:R:3:forces:R:3 energy=5041340.470942511 pbc="F F F"
U        0.00000000       0.00000000       0.00000000       0.00000000       0.00000000 -9079934.00000000
U        0.00000000       0.00000000       0.45757576       0.00000000       0.00000000 9079934.00000000
2
Properties=species:S:1:pos:R:3:forces:R:3 energy=4403695.970942511 pbc="F F F"
U        0.00000000       0.00000000       0.00000000       0.00000000       0.00000000 -12283657.00000000
U        0.00000000       0.00000000       0.51717172       0.00000000       0.00000000 12283657.00000000
2
Properties=species:S:1:pos:R:3:forces:R:3 energy=3590858.970942511 pbc="F F F"
U        0.00000000       0.00000000       0.00000000       0.00000000       0.00000000 -14797798.00000000
U        0.00000000       0.00000000       0.57676768       0.00000000       0.00000000 14797798.00000000
2
Properties=species:S:1:pos:R:3:forces:R:3 energy=2672607.9709425177 pbc="F F F"
U        0.00000000       0.00000000       0.00000000       0.00000000       0.00000000 -15675861.00000000
U        0.00000000       0.00000000       0.63636364       0.00000000       0.00000000 15675861.00000000
2
Properties=species:S:1:pos:R:3:forces:R:3 energy=1767148.095942524 pbc="F F F"
U        0.00000000       0.00000000       0.00000000       0.00000000       0.00000000 -14331428.00000000
U        0.00000000       0.00000000       0.69595960       0.00000000       0.00000000 14331428.00000000
2
Properties=species:S:1:pos:R:3:forces:R:3 energy=1003049.7209425304 pbc="F F F"
U        0.00000000       0.00000000       0.00000000       0.00000000       0.00000000 -11113497.00000000
U        0.00000000       0.00000000       0.75555556       0.00000000       0.00000000 11113497.00000000
2
Properties=species:S:1:pos:R:3:forces:R:3 energy=469850.9709425463 pbc="F F F"
U        0.00000000       0.00000000       0.00000000       0.00000000       0.00000000 -6849742.00000000
U        0.00000000       0.00000000       0.81515152       0.00000000       0.00000000 6849742.00000000
2
Properties=species:S:1:pos:R:3:forces:R:3 energy=170499.08031756847 pbc="F F F"
U        0.00000000       0.00000000       0.00000000       0.00000000       0.00000000 -3365488.25000000
U        0.00000000       0.00000000       0.87474747       0.00000000       0.00000000 3365488.25000000
2
Properties=species:S:1:pos:R:3:forces:R:3 energy=42770.39281759381 pbc="F F F"
U        0.00000000       0.00000000       0.00000000       0.00000000       0.00000000 -1160154.62500000
U        0.00000000       0.00000000       0.93434343       0.00000000       0.00000000 1160154.62500000
2
Properties=species:S:1:pos:R:3:forces:R:3 energy=5932.330317631825 pbc="F F F"
U        0.00000000       0.00000000       0.00000000       0.00000000       0.00000000 -259033.45312500
U        0.00000000       0.00000000       0.99393939       0.00000000       0.00000000  259033.45312500
2
Properties=species:S:1:pos:R:3:forces:R:3 energy=112.90363617029118 pbc="F F F"
U        0.00000000       0.00000000       0.00000000       0.00000000       0.00000000     469.95034790
U        0.00000000       0.00000000       1.05353535       0.00000000       0.00000000    -469.95034790
2
Properties=species:S:1:pos:R:3:forces:R:3 energy=57.368693609862326 pbc="F F F"
U        0.00000000       0.00000000       0.00000000       0.00000000       0.00000000   -1108.79663086
U        0.00000000       0.00000000       1.11313131       0.00000000       0.00000000    1108.79663086
2
Properties=species:S:1:pos:R:3:forces:R:3 energy=10.98839890192448 pbc="F F F"
U        0.00000000       0.00000000       0.00000000       0.00000000       0.00000000    -466.29669189
U        0.00000000       0.00000000       1.17272727       0.00000000       0.00000000     466.29669189
2
Properties=species:S:1:pos:R:3:forces:R:3 energy=-18.694447047034217 pbc="F F F"
U        0.00000000       0.00000000       0.00000000       0.00000000       0.00000000    -502.09942627
U        0.00000000       0.00000000       1.23232323       0.00000000       0.00000000     502.09942627
2
Properties=species:S:1:pos:R:3:forces:R:3 energy=-47.30386004195141 pbc="F F F"
U        0.00000000       0.00000000       0.00000000       0.00000000       0.00000000    -447.94458008
U        0.00000000       0.00000000       1.29191919       0.00000000       0.00000000     447.94458008
2
Properties=species:S:1:pos:R:3:forces:R:3 energy=-71.27458586506567 pbc="F F F"
U        0.00000000       0.00000000       0.00000000       0.00000000       0.00000000    -354.20703125
U        0.00000000       0.00000000       1.35151515       0.00000000       0.00000000     354.20703125
2
Properties=species:S:1:pos:R:3:forces:R:3 energy=-91.00557317313931 pbc="F F F"
U        0.00000000       0.00000000       0.00000000       0.00000000       0.00000000    -314.55502319
U        0.00000000       0.00000000       1.41111111       0.00000000       0.00000000     314.55502319
2
Properties=species:S:1:pos:R:3:forces:R:3 energy=-107.5225559075906 pbc="F F F"
U        0.00000000       0.00000000       0.00000000       0.00000000       0.00000000    -238.45858765
U        0.00000000       0.00000000       1.47070707       0.00000000       0.00000000     238.45858765
2
Properties=species:S:1:pos:R:3:forces:R:3 energy=-119.74643249324822 pbc="F F F"
U        0.00000000       0.00000000       0.00000000       0.00000000       0.00000000    -174.70863342
U        0.00000000       0.00000000       1.53030303       0.00000000       0.00000000     174.70863342
2
Properties=species:S:1:pos:R:3:forces:R:3 energy=-128.64119218158908 pbc="F F F"
U        0.00000000       0.00000000       0.00000000       0.00000000       0.00000000    -125.88529205
U        0.00000000       0.00000000       1.58989899       0.00000000       0.00000000     125.88529205
2
Properties=species:S:1:pos:R:3:forces:R:3 energy=-134.98376670996583 pbc="F F F"
U        0.00000000       0.00000000       0.00000000       0.00000000       0.00000000     -88.94143677
U        0.00000000       0.00000000       1.64949495       0.00000000       0.00000000      88.94143677
2
Properties=species:S:1:pos:R:3:forces:R:3 energy=-139.48167560646073 pbc="F F F"
U        0.00000000       0.00000000       0.00000000       0.00000000       0.00000000     -63.92422104
U        0.00000000       0.00000000       1.70909091       0.00000000       0.00000000      63.92422104
2
Properties=species:S:1:pos:R:3:forces:R:3 energy=-142.81208864236805 pbc="F F F"
U        0.00000000       0.00000000       0.00000000       0.00000000       0.00000000     -49.43085098
U        0.00000000       0.00000000       1.76868687       0.00000000       0.00000000      49.43085098
2
Properties=species:S:1:pos:R:3:forces:R:3 energy=-145.49687164657522 pbc="F F F"
U        0.00000000       0.00000000       0.00000000       0.00000000       0.00000000     -40.90361023
U        0.00000000       0.00000000       1.82828283       0.00000000       0.00000000      40.90361023
2
Properties=species:S:1:pos:R:3:forces:R:3 energy=-147.65745404660248 pbc="F F F"
U        0.00000000       0.00000000       0.00000000       0.00000000       0.00000000     -31.22109985
U        0.00000000       0.00000000       1.88787879       0.00000000       0.00000000      31.22109985
2
Properties=species:S:1:pos:R:3:forces:R:3 energy=-149.2108127363148 pbc="F F F"
U        0.00000000       0.00000000       0.00000000       0.00000000       0.00000000     -21.34363747
U        0.00000000       0.00000000       1.94747475       0.00000000       0.00000000      21.34363747
2
Properties=species:S:1:pos:R:3:forces:R:3 energy=-150.27952154607644 pbc="F F F"
U        0.00000000       0.00000000       0.00000000       0.00000000       0.00000000     -15.08916569
U        0.00000000       0.00000000       2.00707071       0.00000000       0.00000000      15.08916569
2
Properties=species:S:1:pos:R:3:forces:R:3 energy=-151.05594800108793 pbc="F F F"
U        0.00000000       0.00000000       0.00000000       0.00000000       0.00000000     -11.24610710
U        0.00000000       0.00000000       2.06666667       0.00000000       0.00000000      11.24610710
2
Properties=species:S:1:pos:R:3:forces:R:3 energy=-151.6441264839957 pbc="F F F"
U        0.00000000       0.00000000       0.00000000       0.00000000       0.00000000      -8.61869907
U        0.00000000       0.00000000       2.12626263       0.00000000       0.00000000       8.61869907
2
Properties=species:S:1:pos:R:3:forces:R:3 energy=-152.09085566917628 pbc="F F F"
U        0.00000000       0.00000000       0.00000000       0.00000000       0.00000000      -6.39754915
U        0.00000000       0.00000000       2.18585859       0.00000000       0.00000000       6.39754915
2
Properties=species:S:1:pos:R:3:forces:R:3 energy=-152.40872401959228 pbc="F F F"
U        0.00000000       0.00000000       0.00000000       0.00000000       0.00000000      -4.29255390
U        0.00000000       0.00000000       2.24545455       0.00000000       0.00000000       4.29255390
2
Properties=species:S:1:pos:R:3:forces:R:3 energy=-152.60629166522267 pbc="F F F"
U        0.00000000       0.00000000       0.00000000       0.00000000       0.00000000      -2.37824297
U        0.00000000       0.00000000       2.30505051       0.00000000       0.00000000       2.37824297
2
Properties=species:S:1:pos:R:3:forces:R:3 energy=-152.69840536030793 pbc="F F F"
U        0.00000000       0.00000000       0.00000000       0.00000000       0.00000000      -0.78278047
U        0.00000000       0.00000000       2.36464646       0.00000000       0.00000000       0.78278047
2
Properties=species:S:1:pos:R:3:forces:R:3 energy=-152.71131017135036 pbc="F F F"
U        0.00000000       0.00000000       0.00000000       0.00000000       0.00000000       0.22212593
U        0.00000000       0.00000000       2.42424242       0.00000000       0.00000000      -0.22212593
2
Properties=species:S:1:pos:R:3:forces:R:3 energy=-152.68869194807948 pbc="F F F"
U        0.00000000       0.00000000       0.00000000       0.00000000       0.00000000       0.40339494
U        0.00000000       0.00000000       2.48383838       0.00000000       0.00000000      -0.40339494
2
Properties=species:S:1:pos:R:3:forces:R:3 energy=-152.6743433644195 pbc="F F F"
U        0.00000000       0.00000000       0.00000000       0.00000000       0.00000000       0.04071067
U        0.00000000       0.00000000       2.54343434       0.00000000       0.00000000      -0.04071067
2
Properties=species:S:1:pos:R:3:forces:R:3 energy=-152.68155473377706 pbc="F F F"
U        0.00000000       0.00000000       0.00000000       0.00000000       0.00000000      -0.22130398
U        0.00000000       0.00000000       2.60303030       0.00000000       0.00000000       0.22130398
2
Properties=species:S:1:pos:R:3:forces:R:3 energy=-152.6923053629129 pbc="F F F"
U        0.00000000       0.00000000       0.00000000       0.00000000       0.00000000      -0.08233470
U        0.00000000       0.00000000       2.66262626       0.00000000       0.00000000       0.08233470
2
Properties=species:S:1:pos:R:3:forces:R:3 energy=-152.68854404417738 pbc="F F F"
U        0.00000000       0.00000000       0.00000000       0.00000000       0.00000000       0.19791830
U        0.00000000       0.00000000       2.72222222       0.00000000       0.00000000      -0.19791830
2
Properties=species:S:1:pos:R:3:forces:R:3 energy=-152.6724831816074 pbc="F F F"
U        0.00000000       0.00000000       0.00000000       0.00000000       0.00000000       0.30281737
U        0.00000000       0.00000000       2.78181818       0.00000000       0.00000000      -0.30281737
2
Properties=species:S:1:pos:R:3:forces:R:3 energy=-152.65555155435774 pbc="F F F"
U        0.00000000       0.00000000       0.00000000       0.00000000       0.00000000       0.26055896
U        0.00000000       0.00000000       2.84141414       0.00000000       0.00000000      -0.26055896
2
Properties=species:S:1:pos:R:3:forces:R:3 energy=-152.6389697166658 pbc="F F F"
U        0.00000000       0.00000000       0.00000000       0.00000000       0.00000000       0.33865193
U        0.00000000       0.00000000       2.90101010       0.00000000       0.00000000      -0.33865193
2
Properties=species:S:1:pos:R:3:forces:R:3 energy=-152.6086537492061 pbc="F F F"
U        0.00000000       0.00000000       0.00000000       0.00000000       0.00000000       0.73750317
U        0.00000000       0.00000000       2.96060606       0.00000000       0.00000000      -0.73750317
2
Properties=species:S:1:pos:R:3:forces:R:3 energy=-152.5449044095791 pbc="F F F"
U        0.00000000       0.00000000       0.00000000       0.00000000       0.00000000       1.44130480
U        0.00000000       0.00000000       3.02020202       0.00000000       0.00000000      -1.44130480
2
Properties=species:S:1:pos:R:3:forces:R:3 energy=-152.4343090923182 pbc="F F F"
U        0.00000000       0.00000000       0.00000000       0.00000000       0.00000000       2.27153039
U        0.00000000       0.00000000       3.07979798       0.00000000       0.00000000      -2.27153039
2
Properties=species:S:1:pos:R:3:forces:R:3 energy=-152.27637943064212 pbc="F F F"
U        0.00000000       0.00000000       0.00000000       0.00000000       0.00000000       2.99031329
U        0.00000000       0.00000000       3.13939394       0.00000000       0.00000000      -2.99031329
2
Properties=species:S:1:pos:R:3:forces:R:3 energy=-152.08448191786127 pbc="F F F"
U        0.00000000       0.00000000       0.00000000       0.00000000       0.00000000       3.38109875
U        0.00000000       0.00000000       3.19898990       0.00000000       0.00000000      -3.38109875
2
Properties=species:S:1:pos:R:3:forces:R:3 energy=-151.8820386938162 pbc="F F F"
U        0.00000000       0.00000000       0.00000000       0.00000000       0.00000000       3.34205794
U        0.00000000       0.00000000       3.25858586       0.00000000       0.00000000      -3.34205794
2
Properties=species:S:1:pos:R:3:forces:R:3 energy=-151.693341598639 pbc="F F F"
U        0.00000000       0.00000000       0.00000000       0.00000000       0.00000000       2.94475436
U        0.00000000       0.00000000       3.31818182       0.00000000       0.00000000      -2.94475436
2
Properties=species:S:1:pos:R:3:forces:R:3 energy=-151.53425954170365 pbc="F F F"
U        0.00000000       0.00000000       0.00000000       0.00000000       0.00000000       2.38655829
U        0.00000000       0.00000000       3.37777778       0.00000000       0.00000000      -2.38655829
2
Properties=species:S:1:pos:R:3:forces:R:3 energy=-151.4077678348218 pbc="F F F"
U        0.00000000       0.00000000       0.00000000       0.00000000       0.00000000       1.88221252
U        0.00000000       0.00000000       3.43737374       0.00000000       0.00000000      -1.88221252
2
Properties=species:S:1:pos:R:3:forces:R:3 energy=-151.30591640180188 pbc="F F F"
U        0.00000000       0.00000000       0.00000000       0.00000000       0.00000000       1.57490802
U        0.00000000       0.00000000       3.49696970       0.00000000       0.00000000      -1.57490802
2
Properties=species:S:1:pos:R:3:forces:R:3 energy=-151.2153688931086 pbc="F F F"
U        0.00000000       0.00000000       0.00000000       0.00000000       0.00000000       1.50008821
U        0.00000000       0.00000000       3.55656566       0.00000000       0.00000000      -1.50008821
2
Properties=species:S:1:pos:R:3:forces:R:3 energy=-151.123597605335 pbc="F F F"
U        0.00000000       0.00000000       0.00000000       0.00000000       0.00000000       1.60111821
U        0.00000000       0.00000000       3.61616162       0.00000000       0.00000000      -1.60111821
2
Properties=species:S:1:pos:R:3:forces:R:3 energy=-151.02298817782355 pbc="F F F"
U        0.00000000       0.00000000       0.00000000       0.00000000       0.00000000       1.77994275
U        0.00000000       0.00000000       3.67575758       0.00000000       0.00000000      -1.77994275
2
Properties=species:S:1:pos:R:3:forces:R:3 energy=-150.91160250677663 pbc="F F F"
U        0.00000000       0.00000000       0.00000000       0.00000000       0.00000000       1.95231390
U        0.00000000       0.00000000       3.73535354       0.00000000       0.00000000      -1.95231390
2
Properties=species:S:1:pos:R:3:forces:R:3 energy=-150.79128667758764 pbc="F F F"
U        0.00000000       0.00000000       0.00000000       0.00000000       0.00000000       2.07612729
U        0.00000000       0.00000000       3.79494949       0.00000000       0.00000000      -2.07612729
2
Properties=species:S:1:pos:R:3:forces:R:3 energy=-150.66524475085566 pbc="F F F"
U        0.00000000       0.00000000       0.00000000       0.00000000       0.00000000       2.14479136
U        0.00000000       0.00000000       3.85454545       0.00000000       0.00000000      -2.14479136
2
Properties=species:S:1:pos:R:3:forces:R:3 energy=-150.53657399466334 pbc="F F F"
U        0.00000000       0.00000000       0.00000000       0.00000000       0.00000000       2.16635895
U        0.00000000       0.00000000       3.91414141       0.00000000       0.00000000      -2.16635895
2
Properties=species:S:1:pos:R:3:forces:R:3 energy=-150.40777659065552 pbc="F F F"
U        0.00000000       0.00000000       0.00000000       0.00000000       0.00000000       2.15063882
U        0.00000000       0.00000000       3.97373737       0.00000000       0.00000000      -2.15063882
2
Properties=species:S:1:pos:R:3:forces:R:3 energy=-150.28079009459657 pbc="F F F"
U        0.00000000       0.00000000       0.00000000       0.00000000       0.00000000       2.10720420
U        0.00000000       0.00000000       4.03333333       0.00000000       0.00000000      -2.10720420
2
Properties=species:S:1:pos:R:3:forces:R:3 energy=-150.15695697581305 pbc="F F F"
U        0.00000000       0.00000000       0.00000000       0.00000000       0.00000000       2.04642010
U        0.00000000       0.00000000       4.09292929       0.00000000       0.00000000      -2.04642010
2
Properties=species:S:1:pos:R:3:forces:R:3 energy=-150.03699407744085 pbc="F F F"
U        0.00000000       0.00000000       0.00000000       0.00000000       0.00000000       1.97946823
U        0.00000000       0.00000000       4.15252525       0.00000000       0.00000000      -1.97946823
2
Properties=species:S:1:pos:R:3:forces:R:3 energy=-149.92094684956152 pbc="F F F"
U        0.00000000       0.00000000       0.00000000       0.00000000       0.00000000       1.91656733
U        0.00000000       0.00000000       4.21212121       0.00000000       0.00000000      -1.91656733
2
Properties=species:S:1:pos:R:3:forces:R:3 energy=-149.80834193709276 pbc="F F F"
U        0.00000000       0.00000000       0.00000000       0.00000000       0.00000000       1.86393940
U        0.00000000       0.00000000       4.27171717       0.00000000       0.00000000      -1.86393940
2
Properties=species:S:1:pos:R:3:forces:R:3 energy=-149.69858388929725 pbc="F F F"
U        0.00000000       0.00000000       0.00000000       0.00000000       0.00000000       1.82090759
U        0.00000000       0.00000000       4.33131313       0.00000000       0.00000000      -1.82090759
2
Properties=species:S:1:pos:R:3:forces:R:3 energy=-149.59129089432363 pbc="F F F"
U        0.00000000       0.00000000       0.00000000       0.00000000       0.00000000       1.77895164
U        0.00000000       0.00000000       4.39090909       0.00000000       0.00000000      -1.77895164
2
Properties=species:S:1:pos:R:3:forces:R:3 energy=-149.4868135431886 pbc="F F F"
U        0.00000000       0.00000000       0.00000000       0.00000000       0.00000000       1.72339678
U        0.00000000       0.00000000       4.45050505       0.00000000       0.00000000      -1.72339678
2
Properties=species:S:1:pos:R:3:forces:R:3 energy=-149.3864789925767 pbc="F F F"
U        0.00000000       0.00000000       0.00000000       0.00000000       0.00000000       1.63742566
U        0.00000000       0.00000000       4.51010101       0.00000000       0.00000000      -1.63742566
2
Properties=species:S:1:pos:R:3:forces:R:3 energy=-149.29252991384493 pbc="F F F"
U        0.00000000       0.00000000       0.00000000       0.00000000       0.00000000       1.50733423
U        0.00000000       0.00000000       4.56969697       0.00000000       0.00000000      -1.50733423
2
Properties=species:S:1:pos:R:3:forces:R:3 energy=-149.20780407745937 pbc="F F F"
U        0.00000000       0.00000000       0.00000000       0.00000000       0.00000000       1.32784867
U        0.00000000       0.00000000       4.62929293       0.00000000       0.00000000      -1.32784867
2
Properties=species:S:1:pos:R:3:forces:R:3 energy=-149.13510873630798 pbc="F F F"
U        0.00000000       0.00000000       0.00000000       0.00000000       0.00000000       1.10592675
U        0.00000000       0.00000000       4.68888889       0.00000000       0.00000000      -1.10592675
2
Properties=species:S:1:pos:R:3:forces:R:3 energy=-149.0764424306262 pbc="F F F"
U        0.00000000       0.00000000       0.00000000       0.00000000       0.00000000       0.86141461
U        0.00000000       0.00000000       4.74848485       0.00000000       0.00000000      -0.86141461
2
Properties=species:S:1:pos:R:3:forces:R:3 energy=-149.03230834248922 pbc="F F F"
U        0.00000000       0.00000000       0.00000000       0.00000000       0.00000000       0.62355357
U        0.00000000       0.00000000       4.80808081       0.00000000       0.00000000      -0.62355357
2
Properties=species:S:1:pos:R:3:forces:R:3 energy=-149.0013633563347 pbc="F F F"
U        0.00000000       0.00000000       0.00000000       0.00000000       0.00000000       0.42335406
U        0.00000000       0.00000000       4.86767677       0.00000000       0.00000000      -0.42335406
2
Properties=species:S:1:pos:R:3:forces:R:3 energy=-148.98061640738166 pbc="F F F"
U        0.00000000       0.00000000       0.00000000       0.00000000       0.00000000       0.28450227
U        0.00000000       0.00000000       4.92727273       0.00000000       0.00000000      -0.28450227
2
Properties=species:S:1:pos:R:3:forces:R:3 energy=-148.96603886170317 pbc="F F F"
U        0.00000000       0.00000000       0.00000000       0.00000000       0.00000000       0.21591337
U        0.00000000       0.00000000       4.98686869       0.00000000       0.00000000      -0.21591337
2
Properties=species:S:1:pos:R:3:forces:R:3 energy=-148.95363261562173 pbc="F F F"
U        0.00000000       0.00000000       0.00000000       0.00000000       0.00000000       0.20933820
U        0.00000000       0.00000000       5.04646465       0.00000000       0.00000000      -0.20933820
2
Properties=species:S:1:pos:R:3:forces:R:3 energy=-148.94028459423248 pbc="F F F"
U        0.00000000       0.00000000       0.00000000       0.00000000       0.00000000       0.24317896
U        0.00000000       0.00000000       5.10606061       0.00000000       0.00000000      -0.24317896
2
Properties=species:S:1:pos:R:3:forces:R:3 energy=-148.9243771188046 pbc="F F F"
U        0.00000000       0.00000000       0.00000000       0.00000000       0.00000000       0.29110092
U        0.00000000       0.00000000       5.16565657       0.00000000       0.00000000      -0.29110092
2
Properties=species:S:1:pos:R:3:forces:R:3 energy=-148.9057421177431 pbc="F F F"
U        0.00000000       0.00000000       0.00000000       0.00000000       0.00000000       0.33191857
U        0.00000000       0.00000000       5.22525253       0.00000000       0.00000000      -0.33191857
2
Properties=species:S:1:pos:R:3:forces:R:3 energy=-148.8851575992208 pbc="F F F"
U        0.00000000       0.00000000       0.00000000       0.00000000       0.00000000       0.35618806
U        0.00000000       0.00000000       5.28484848       0.00000000       0.00000000      -0.35618806
2
Properties=species:S:1:pos:R:3:forces:R:3 energy=-148.8635847212288 pbc="F F F"
U        0.00000000       0.00000000       0.00000000       0.00000000       0.00000000       0.36525244
U        0.00000000       0.00000000       5.34444444       0.00000000       0.00000000      -0.36525244
2
Properties=species:S:1:pos:R:3:forces:R:3 energy=-148.841893122286 pbc="F F F"
U        0.00000000       0.00000000       0.00000000       0.00000000       0.00000000       0.35975373
U        0.00000000       0.00000000       5.40404040       0.00000000       0.00000000      -0.35975373
2
Properties=species:S:1:pos:R:3:forces:R:3 energy=-148.8212576689616 pbc="F F F"
U        0.00000000       0.00000000       0.00000000       0.00000000       0.00000000       0.32723233
U        0.00000000       0.00000000       5.46363636       0.00000000       0.00000000      -0.32723233
2
Properties=species:S:1:pos:R:3:forces:R:3 energy=-148.80334155817602 pbc="F F F"
U        0.00000000       0.00000000       0.00000000       0.00000000       0.00000000       0.27389389
U        0.00000000       0.00000000       5.52323232       0.00000000       0.00000000      -0.27389389
2
Properties=species:S:1:pos:R:3:forces:R:3 energy=-148.78832794133143 pbc="F F F"
U        0.00000000       0.00000000       0.00000000       0.00000000       0.00000000       0.23255913
U        0.00000000       0.00000000       5.58282828       0.00000000       0.00000000      -0.23255913
2
Properties=species:S:1:pos:R:3:forces:R:3 energy=-148.77554552199203 pbc="F F F"
U        0.00000000       0.00000000       0.00000000       0.00000000       0.00000000       0.19554809
U        0.00000000       0.00000000       5.64242424       0.00000000       0.00000000      -0.19554809
2
Properties=species:S:1:pos:R:3:forces:R:3 energy=-148.76514704960735 pbc="F F F"
U        0.00000000       0.00000000       0.00000000       0.00000000       0.00000000       0.15362056
U        0.00000000       0.00000000       5.70202020       0.00000000       0.00000000      -0.15362056
2
Properties=species:S:1:pos:R:3:forces:R:3 energy=-148.7566292106376 pbc="F F F"
U        0.00000000       0.00000000       0.00000000       0.00000000       0.00000000       0.14198513
U        0.00000000       0.00000000       5.76161616       0.00000000       0.00000000      -0.14198513
2
Properties=species:S:1:pos:R:3:forces:R:3 energy=-148.74723043827916 pbc="F F F"
U        0.00000000       0.00000000       0.00000000       0.00000000       0.00000000       0.17354205
U        0.00000000       0.00000000       5.82121212       0.00000000       0.00000000      -0.17354205
2
Properties=species:S:1:pos:R:3:forces:R:3 energy=-148.73730203630862 pbc="F F F"
U        0.00000000       0.00000000       0.00000000       0.00000000       0.00000000       0.14399640
U        0.00000000       0.00000000       5.88080808       0.00000000       0.00000000      -0.14399640
2
Properties=species:S:1:pos:R:3:forces:R:3 energy=-148.73136101493762 pbc="F F F"
U        0.00000000       0.00000000       0.00000000       0.00000000       0.00000000       0.05215693
U        0.00000000       0.00000000       5.94040404       0.00000000       0.00000000      -0.05215693
2
Properties=species:S:1:pos:R:3:forces:R:3 energy=-148.73006398202085 pbc="F F F"
U        0.00000000       0.00000000       0.00000000       0.00000000       0.00000000       0.00648203
U        0.00000000       0.00000000       6.00000000       0.00000000       0.00000000      -0.00648203
