2
Properties=species:S:1:pos:R:3:forces:R:3 energy=47741.64117748896 pbc="F F F"
Xe       0.00000000       0.00000000       0.00000000       0.00000000       0.00000000 -1160114.37500000
Xe       0.00000000       0.00000000       0.10000000       0.00000000       0.00000000 1160114.37500000
2
Properties=species:S:1:pos:R:3:forces:R:3 energy=13827.148013426458 pbc="F F F"
Xe       0.00000000       0.00000000       0.00000000       0.00000000       0.00000000 -249588.03125000
Xe       0.00000000       0.00000000       0.15959596       0.00000000       0.00000000  249588.03125000
2
Properties=species:S:1:pos:R:3:forces:R:3 energy=5252.345767332709 pbc="F F F"
Xe       0.00000000       0.00000000       0.00000000       0.00000000       0.00000000  -77269.20312500
Xe       0.00000000       0.00000000       0.21919192       0.00000000       0.00000000   77269.20312500
2
Properties=species:S:1:pos:R:3:forces:R:3 energy=2350.538882567084 pbc="F F F"
Xe       0.00000000       0.00000000       0.00000000       0.00000000       0.00000000  -28961.87500000
Xe       0.00000000       0.00000000       0.27878788       0.00000000       0.00000000   28961.87500000
2
Properties=species:S:1:pos:R:3:forces:R:3 energy=1215.9992097155214 pbc="F F F"
Xe       0.00000000       0.00000000       0.00000000       0.00000000       0.00000000  -11744.01953125
Xe       0.00000000       0.00000000       0.33838384       0.00000000       0.00000000   11744.01953125
2
Properties=species:S:1:pos:R:3:forces:R:3 energy=761.7529328600527 pbc="F F F"
Xe       0.00000000       0.00000000       0.00000000       0.00000000       0.00000000   -4430.69677734
Xe       0.00000000       0.00000000       0.39797980       0.00000000       0.00000000    4430.69677734
2
Properties=species:S:1:pos:R:3:forces:R:3 energy=616.7193024905429 pbc="F F F"
Xe       0.00000000       0.00000000       0.00000000       0.00000000       0.00000000    -817.76116943
Xe       0.00000000       0.00000000       0.45757576       0.00000000       0.00000000     817.76116943
2
Properties=species:S:1:pos:R:3:forces:R:3 energy=631.7934602085544 pbc="F F F"
Xe       0.00000000       0.00000000       0.00000000       0.00000000       0.00000000    1116.05932617
Xe       0.00000000       0.00000000       0.51717172       0.00000000       0.00000000   -1116.05932617
2
Properties=species:S:1:pos:R:3:forces:R:3 energy=727.6519196859624 pbc="F F F"
Xe       0.00000000       0.00000000       0.00000000       0.00000000       0.00000000    1920.42199707
Xe       0.00000000       0.00000000       0.57676768       0.00000000       0.00000000   -1920.42199707
2
Properties=species:S:1:pos:R:3:forces:R:3 energy=838.1881135415382 pbc="F F F"
Xe       0.00000000       0.00000000       0.00000000       0.00000000       0.00000000    1590.71765137
Xe       0.00000000       0.00000000       0.63636364       0.00000000       0.00000000   -1590.71765137
2
Properties=species:S:1:pos:R:3:forces:R:3 energy=1483.8687165815534 pbc="F F F"
Xe       0.00000000       0.00000000       0.00000000       0.00000000       0.00000000   35231.58593750
Xe       0.00000000       0.00000000       0.69595960       0.00000000       0.00000000  -35231.58593750
2
Properties=species:S:1:pos:R:3:forces:R:3 energy=2632.334781055269 pbc="F F F"
Xe       0.00000000       0.00000000       0.00000000       0.00000000       0.00000000   -6847.48193359
Xe       0.00000000       0.00000000       0.75555556       0.00000000       0.00000000    6847.48193359
2
Properties=species:S:1:pos:R:3:forces:R:3 energy=2353.6777986634884 pbc="F F F"
Xe       0.00000000       0.00000000       0.00000000       0.00000000       0.00000000   -3192.70605469
Xe       0.00000000       0.00000000       0.81515152       0.00000000       0.00000000    3192.70605469
2
Properties=species:S:1:pos:R:3:forces:R:3 energy=2135.156070190629 pbc="F F F"
Xe       0.00000000       0.00000000       0.00000000       0.00000000       0.00000000   -5063.60742188
Xe       0.00000000       0.00000000       0.87474747       0.00000000       0.00000000    5063.60742188
2
Properties=species:S:1:pos:R:3:forces:R:3 energy=1754.9199862664427 pbc="F F F"
Xe       0.00000000       0.00000000       0.00000000       0.00000000       0.00000000   -7228.34228516
Xe       0.00000000       0.00000000       0.93434343       0.00000000       0.00000000    7228.34228516
2
Properties=species:S:1:pos:R:3:forces:R:3 energy=1324.6046787332025 pbc="F F F"
Xe       0.00000000       0.00000000       0.00000000       0.00000000       0.00000000   -6950.99072266
Xe       0.00000000       0.00000000       0.99393939       0.00000000       0.00000000    6950.99072266
2
Properties=species:S:1:pos:R:3:forces:R:3 energy=941.7011754284833 pbc="F F F"
Xe       0.00000000       0.00000000       0.00000000       0.00000000       0.00000000   -5841.57128906
Xe       0.00000000       0.00000000       1.05353535       0.00000000       0.00000000    5841.57128906
2
Properties=species:S:1:pos:R:3:forces:R:3 energy=632.9801062430174 pbc="F F F"
Xe       0.00000000       0.00000000       0.00000000       0.00000000       0.00000000   -4493.91113281
Xe       0.00000000       0.00000000       1.11313131       0.00000000       0.00000000    4493.91113281
2
Properties=species:S:1:pos:R:3:forces:R:3 energy=406.0202065386625 pbc="F F F"
Xe       0.00000000       0.00000000       0.00000000       0.00000000       0.00000000   -3155.15258789
Xe       0.00000000       0.00000000       1.17272727       0.00000000       0.00000000    3155.15258789
2
Properties=species:S:1:pos:R:3:forces:R:3 energy=250.94679675870054 pbc="F F F"
Xe       0.00000000       0.00000000       0.00000000       0.00000000       0.00000000   -2096.39331055
Xe       0.00000000       0.00000000       1.23232323       0.00000000       0.00000000    2096.39331055
2
Properties=species:S:1:pos:R:3:forces:R:3 energy=148.63237447914827 pbc="F F F"
Xe       0.00000000       0.00000000       0.00000000       0.00000000       0.00000000   -1392.56994629
Xe       0.00000000       0.00000000       1.29191919       0.00000000       0.00000000    1392.56994629
2
Properties=species:S:1:pos:R:3:forces:R:3 energy=80.65025819174639 pbc="F F F"
Xe       0.00000000       0.00000000       0.00000000       0.00000000       0.00000000    -914.05737305
Xe       0.00000000       0.00000000       1.35151515       0.00000000       0.00000000     914.05737305
2
Properties=species:S:1:pos:R:3:forces:R:3 energy=37.127690959869916 pbc="F F F"
Xe       0.00000000       0.00000000       0.00000000       0.00000000       0.00000000    -567.58618164
Xe       0.00000000       0.00000000       1.41111111       0.00000000       0.00000000     567.58618164
2
Properties=species:S:1:pos:R:3:forces:R:3 energy=10.46022257748765 pbc="F F F"
Xe       0.00000000       0.00000000       0.00000000       0.00000000       0.00000000    -346.89010620
Xe       0.00000000       0.00000000       1.47070707       0.00000000       0.00000000     346.89010620
2
Properties=species:S:1:pos:R:3:forces:R:3 energy=-6.078984093012684 pbc="F F F"
Xe       0.00000000       0.00000000       0.00000000       0.00000000       0.00000000    -219.97317505
Xe       0.00000000       0.00000000       1.53030303       0.00000000       0.00000000     219.97317505
2
Properties=species:S:1:pos:R:3:forces:R:3 energy=-16.76062566313534 pbc="F F F"
Xe       0.00000000       0.00000000       0.00000000       0.00000000       0.00000000    -144.26283264
Xe       0.00000000       0.00000000       1.58989899       0.00000000       0.00000000     144.26283264
2
Properties=species:S:1:pos:R:3:forces:R:3 energy=-23.82514628534366 pbc="F F F"
Xe       0.00000000       0.00000000       0.00000000       0.00000000       0.00000000     -96.62446594
Xe       0.00000000       0.00000000       1.64949495       0.00000000       0.00000000      96.62446594
2
Properties=species:S:1:pos:R:3:forces:R:3 energy=-28.641133421855905 pbc="F F F"
Xe       0.00000000       0.00000000       0.00000000       0.00000000       0.00000000     -67.33998871
Xe       0.00000000       0.00000000       1.70909091       0.00000000       0.00000000      67.33998871
2
Properties=species:S:1:pos:R:3:forces:R:3 energy=-32.063598020194384 pbc="F F F"
Xe       0.00000000       0.00000000       0.00000000       0.00000000       0.00000000     -48.84375000
Xe       0.00000000       0.00000000       1.76868687       0.00000000       0.00000000      48.84375000
2
Properties=species:S:1:pos:R:3:forces:R:3 energy=-34.584992659053455 pbc="F F F"
Xe       0.00000000       0.00000000       0.00000000       0.00000000       0.00000000     -36.56670761
Xe       0.00000000       0.00000000       1.82828283       0.00000000       0.00000000      36.56670761
2
Properties=species:S:1:pos:R:3:forces:R:3 energy=-36.49804190029079 pbc="F F F"
Xe       0.00000000       0.00000000       0.00000000       0.00000000       0.00000000     -28.14639664
Xe       0.00000000       0.00000000       1.88787879       0.00000000       0.00000000      28.14639664
2
Properties=species:S:1:pos:R:3:forces:R:3 energy=-37.989765039781844 pbc="F F F"
Xe       0.00000000       0.00000000       0.00000000       0.00000000       0.00000000     -22.25528908
Xe       0.00000000       0.00000000       1.94747475       0.00000000       0.00000000      22.25528908
2
Properties=species:S:1:pos:R:3:forces:R:3 energy=-39.18403668322856 pbc="F F F"
Xe       0.00000000       0.00000000       0.00000000       0.00000000       0.00000000     -18.05174065
Xe       0.00000000       0.00000000       2.00707071       0.00000000       0.00000000      18.05174065
2
Properties=species:S:1:pos:R:3:forces:R:3 energy=-40.163841689215026 pbc="F F F"
Xe       0.00000000       0.00000000       0.00000000       0.00000000       0.00000000     -14.98458481
Xe       0.00000000       0.00000000       2.06666667       0.00000000       0.00000000      14.98458481
2
Properties=species:S:1:pos:R:3:forces:R:3 energy=-40.98535903547198 pbc="F F F"
Xe       0.00000000       0.00000000       0.00000000       0.00000000       0.00000000     -12.69076824
Xe       0.00000000       0.00000000       2.12626263       0.00000000       0.00000000      12.69076824
2
Properties=species:S:1:pos:R:3:forces:R:3 energy=-41.68700264268479 pbc="F F F"
Xe       0.00000000       0.00000000       0.00000000       0.00000000       0.00000000     -10.92936325
Xe       0.00000000       0.00000000       2.18585859       0.00000000       0.00000000      10.92936325
2
Properties=species:S:1:pos:R:3:forces:R:3 energy=-42.29543334767954 pbc="F F F"
Xe       0.00000000       0.00000000       0.00000000       0.00000000       0.00000000      -9.54171467
Xe       0.00000000       0.00000000       2.24545455       0.00000000       0.00000000       9.54171467
2
Properties=species:S:1:pos:R:3:forces:R:3 energy=-42.82967113440406 pbc="F F F"
Xe       0.00000000       0.00000000       0.00000000       0.00000000       0.00000000      -8.42595959
Xe       0.00000000       0.00000000       2.30505051       0.00000000       0.00000000       8.42595959
2
Properties=species:S:1:pos:R:3:forces:R:3 energy=-43.30384935723305 pbc="F F F"
Xe       0.00000000       0.00000000       0.00000000       0.00000000       0.00000000      -7.51785421
Xe       0.00000000       0.00000000       2.36464646       0.00000000       0.00000000       7.51785421
2
Properties=species:S:1:pos:R:3:forces:R:3 energy=-43.72901526778202 pbc="F F F"
Xe       0.00000000       0.00000000       0.00000000       0.00000000       0.00000000      -6.77498436
Xe       0.00000000       0.00000000       2.42424242       0.00000000       0.00000000       6.77498436
2
Properties=species:S:1:pos:R:3:forces:R:3 energy=-44.1140226588192 pbc="F F F"
Xe       0.00000000       0.00000000       0.00000000       0.00000000       0.00000000      -6.16556311
Xe       0.00000000       0.00000000       2.48383838       0.00000000       0.00000000       6.16556311
2
Properties=species:S:1:pos:R:3:forces:R:3 energy=-44.46599344263469 pbc="F F F"
Xe       0.00000000       0.00000000       0.00000000       0.00000000       0.00000000      -5.66164970
Xe       0.00000000       0.00000000       2.54343434       0.00000000       0.00000000       5.66164970
2
Properties=species:S:1:pos:R:3:forces:R:3 energy=-44.7904130121364 pbc="F F F"
Xe       0.00000000       0.00000000       0.00000000       0.00000000       0.00000000      -5.23664665
Xe       0.00000000       0.00000000       2.60303030       0.00000000       0.00000000       5.23664665
2
Properties=species:S:1:pos:R:3:forces:R:3 energy=-45.09122561778521 pbc="F F F"
Xe       0.00000000       0.00000000       0.00000000       0.00000000       0.00000000      -4.86538553
Xe       0.00000000       0.00000000       2.66262626       0.00000000       0.00000000       4.86538553
2
Properties=species:S:1:pos:R:3:forces:R:3 energy=-45.37094117119885 pbc="F F F"
Xe       0.00000000       0.00000000       0.00000000       0.00000000       0.00000000      -4.52515793
Xe       0.00000000       0.00000000       2.72222222       0.00000000       0.00000000       4.52515793
2
Properties=species:S:1:pos:R:3:forces:R:3 energy=-45.63082598001515 pbc="F F F"
Xe       0.00000000       0.00000000       0.00000000       0.00000000       0.00000000      -4.19710064
Xe       0.00000000       0.00000000       2.78181818       0.00000000       0.00000000       4.19710064
2
Properties=species:S:1:pos:R:3:forces:R:3 energy=-45.87117359694161 pbc="F F F"
Xe       0.00000000       0.00000000       0.00000000       0.00000000       0.00000000      -3.86786866
Xe       0.00000000       0.00000000       2.84141414       0.00000000       0.00000000       3.86786866
2
Properties=species:S:1:pos:R:3:forces:R:3 energy=-46.09168628393827 pbc="F F F"
Xe       0.00000000       0.00000000       0.00000000       0.00000000       0.00000000      -3.53103590
Xe       0.00000000       0.00000000       2.90101010       0.00000000       0.00000000       3.53103590
2
Properties=species:S:1:pos:R:3:forces:R:3 energy=-46.291906071424826 pbc="F F F"
Xe       0.00000000       0.00000000       0.00000000       0.00000000       0.00000000      -3.18734050
Xe       0.00000000       0.00000000       2.96060606       0.00000000       0.00000000       3.18734050
2
Properties=species:S:1:pos:R:3:forces:R:3 energy=-46.47158479500274 pbc="F F F"
Xe       0.00000000       0.00000000       0.00000000       0.00000000       0.00000000      -2.84318256
Xe       0.00000000       0.00000000       3.02020202       0.00000000       0.00000000       2.84318256
2
Properties=species:S:1:pos:R:3:forces:R:3 energy=-46.63096255568438 pbc="F F F"
Xe       0.00000000       0.00000000       0.00000000       0.00000000       0.00000000      -2.50770330
Xe       0.00000000       0.00000000       3.07979798       0.00000000       0.00000000       2.50770330
2
Properties=species:S:1:pos:R:3:forces:R:3 energy=-46.77083257766606 pbc="F F F"
Xe       0.00000000       0.00000000       0.00000000       0.00000000       0.00000000      -2.18974137
Xe       0.00000000       0.00000000       3.13939394       0.00000000       0.00000000       2.18974137
2
Properties=species:S:1:pos:R:3:forces:R:3 energy=-46.89243820991799 pbc="F F F"
Xe       0.00000000       0.00000000       0.00000000       0.00000000       0.00000000      -1.89572942
Xe       0.00000000       0.00000000       3.19898990       0.00000000       0.00000000       1.89572942
2
Properties=species:S:1:pos:R:3:forces:R:3 energy=-46.99733178238541 pbc="F F F"
Xe       0.00000000       0.00000000       0.00000000       0.00000000       0.00000000      -1.62916148
Xe       0.00000000       0.00000000       3.25858586       0.00000000       0.00000000       1.62916148
2
Properties=species:S:1:pos:R:3:forces:R:3 energy=-47.08719150606356 pbc="F F F"
Xe       0.00000000       0.00000000       0.00000000       0.00000000       0.00000000      -1.39126146
Xe       0.00000000       0.00000000       3.31818182       0.00000000       0.00000000       1.39126146
2
Properties=species:S:1:pos:R:3:forces:R:3 energy=-47.1637299147196 pbc="F F F"
Xe       0.00000000       0.00000000       0.00000000       0.00000000       0.00000000      -1.18198979
Xe       0.00000000       0.00000000       3.37777778       0.00000000       0.00000000       1.18198979
2
Properties=species:S:1:pos:R:3:forces:R:3 energy=-47.22863283765593 pbc="F F F"
Xe       0.00000000       0.00000000       0.00000000       0.00000000       0.00000000      -1.00076079
Xe       0.00000000       0.00000000       3.43737374       0.00000000       0.00000000       1.00076079
2
Properties=species:S:1:pos:R:3:forces:R:3 energy=-47.28355176635584 pbc="F F F"
Xe       0.00000000       0.00000000       0.00000000       0.00000000       0.00000000      -0.84662968
Xe       0.00000000       0.00000000       3.49696970       0.00000000       0.00000000       0.84662968
2
Properties=species:S:1:pos:R:3:forces:R:3 energy=-47.33005427133868 pbc="F F F"
Xe       0.00000000       0.00000000       0.00000000       0.00000000       0.00000000      -0.71813577
Xe       0.00000000       0.00000000       3.55656566       0.00000000       0.00000000       0.71813577
2
Properties=species:S:1:pos:R:3:forces:R:3 energy=-47.369612558068006 pbc="F F F"
Xe       0.00000000       0.00000000       0.00000000       0.00000000       0.00000000      -0.61310875
Xe       0.00000000       0.00000000       3.61616162       0.00000000       0.00000000       0.61310875
2
Properties=species:S:1:pos:R:3:forces:R:3 energy=-47.403542431003395 pbc="F F F"
Xe       0.00000000       0.00000000       0.00000000       0.00000000       0.00000000      -0.52864283
Xe       0.00000000       0.00000000       3.67575758       0.00000000       0.00000000       0.52864283
2
Properties=species:S:1:pos:R:3:forces:R:3 energy=-47.43296515533931 pbc="F F F"
Xe       0.00000000       0.00000000       0.00000000       0.00000000       0.00000000      -0.46132001
Xe       0.00000000       0.00000000       3.73535354       0.00000000       0.00000000       0.46132001
2
Properties=species:S:1:pos:R:3:forces:R:3 energy=-47.45879601370523 pbc="F F F"
Xe       0.00000000       0.00000000       0.00000000       0.00000000       0.00000000      -0.40754399
Xe       0.00000000       0.00000000       3.79494949       0.00000000       0.00000000       0.40754399
2
Properties=species:S:1:pos:R:3:forces:R:3 energy=-47.4817404954282 pbc="F F F"
Xe       0.00000000       0.00000000       0.00000000       0.00000000       0.00000000      -0.36389008
Xe       0.00000000       0.00000000       3.85454545       0.00000000       0.00000000       0.36389008
2
Properties=species:S:1:pos:R:3:forces:R:3 energy=-47.50230955928163 pbc="F F F"
Xe       0.00000000       0.00000000       0.00000000       0.00000000       0.00000000      -0.32737300
Xe       0.00000000       0.00000000       3.91414141       0.00000000       0.00000000       0.32737300
2
Properties=species:S:1:pos:R:3:forces:R:3 energy=-47.5208539697205 pbc="F F F"
Xe       0.00000000       0.00000000       0.00000000       0.00000000       0.00000000      -0.29557487
Xe       0.00000000       0.00000000       3.97373737       0.00000000       0.00000000       0.29557487
2
Properties=species:S:1:pos:R:3:forces:R:3 energy=-47.53759863232456 pbc="F F F"
Xe       0.00000000       0.00000000       0.00000000       0.00000000       0.00000000      -0.26669204
Xe       0.00000000       0.00000000       4.03333333       0.00000000       0.00000000       0.26669204
2
Properties=species:S:1:pos:R:3:forces:R:3 energy=-47.552673117712075 pbc="F F F"
Xe       0.00000000       0.00000000       0.00000000       0.00000000       0.00000000      -0.23948109
Xe       0.00000000       0.00000000       4.09292929       0.00000000       0.00000000       0.23948109
2
Properties=species:S:1:pos:R:3:forces:R:3 energy=-47.56616126052388 pbc="F F F"
Xe       0.00000000       0.00000000       0.00000000       0.00000000       0.00000000      -0.21318133
Xe       0.00000000       0.00000000       4.15252525       0.00000000       0.00000000       0.21318133
2
Properties=species:S:1:pos:R:3:forces:R:3 energy=-47.57809352686098 pbc="F F F"
Xe       0.00000000       0.00000000       0.00000000       0.00000000       0.00000000      -0.18742137
Xe       0.00000000       0.00000000       4.21212121       0.00000000       0.00000000       0.18742137
2
Properties=species:S:1:pos:R:3:forces:R:3 energy=-47.588508055776494 pbc="F F F"
Xe       0.00000000       0.00000000       0.00000000       0.00000000       0.00000000      -0.16213161
Xe       0.00000000       0.00000000       4.27171717       0.00000000       0.00000000       0.16213161
2
Properties=species:S:1:pos:R:3:forces:R:3 energy=-47.59743159370881 pbc="F F F"
Xe       0.00000000       0.00000000       0.00000000       0.00000000       0.00000000      -0.13746911
Xe       0.00000000       0.00000000       4.33131313       0.00000000       0.00000000       0.13746911
2
Properties=species:S:1:pos:R:3:forces:R:3 energy=-47.60491382992489 pbc="F F F"
Xe       0.00000000       0.00000000       0.00000000       0.00000000       0.00000000      -0.11373828
Xe       0.00000000       0.00000000       4.39090909       0.00000000       0.00000000       0.11373828
2
Properties=species:S:1:pos:R:3:forces:R:3 energy=-47.611015950052526 pbc="F F F"
Xe       0.00000000       0.00000000       0.00000000       0.00000000       0.00000000      -0.09133524
Xe       0.00000000       0.00000000       4.45050505       0.00000000       0.00000000       0.09133524
2
Properties=species:S:1:pos:R:3:forces:R:3 energy=-47.61583353218353 pbc="F F F"
Xe       0.00000000       0.00000000       0.00000000       0.00000000       0.00000000      -0.07068702
Xe       0.00000000       0.00000000       4.51010101       0.00000000       0.00000000       0.07068702
2
Properties=species:S:1:pos:R:3:forces:R:3 energy=-47.61948509486238 pbc="F F F"
Xe       0.00000000       0.00000000       0.00000000       0.00000000       0.00000000      -0.05219217
Xe       0.00000000       0.00000000       4.56969697       0.00000000       0.00000000       0.05219217
2
Properties=species:S:1:pos:R:3:forces:R:3 energy=-47.62210448273883 pbc="F F F"
Xe       0.00000000       0.00000000       0.00000000       0.00000000       0.00000000      -0.03617235
Xe       0.00000000       0.00000000       4.62929293       0.00000000       0.00000000       0.03617235
2
Properties=species:S:1:pos:R:3:forces:R:3 energy=-47.623848480915285 pbc="F F F"
Xe       0.00000000       0.00000000       0.00000000       0.00000000       0.00000000      -0.02282114
Xe       0.00000000       0.00000000       4.68888889       0.00000000       0.00000000       0.02282114
2
Properties=species:S:1:pos:R:3:forces:R:3 energy=-47.624877748588105 pbc="F F F"
Xe       0.00000000       0.00000000       0.00000000       0.00000000       0.00000000      -0.01216491
Xe       0.00000000       0.00000000       4.74848485       0.00000000       0.00000000       0.01216491
2
Properties=species:S:1:pos:R:3:forces:R:3 energy=-47.62534917381392 pbc="F F F"
Xe       0.00000000       0.00000000       0.00000000       0.00000000       0.00000000      -0.00404921
Xe       0.00000000       0.00000000       4.80808081       0.00000000       0.00000000       0.00404921
2
Properties=species:S:1:pos:R:3:forces:R:3 energy=-47.62540444208915 pbc="F F F"
Xe       0.00000000       0.00000000       0.00000000       0.00000000       0.00000000       0.00184564
Xe       0.00000000       0.00000000       4.86767677       0.00000000       0.00000000      -0.00184564
2
Properties=species:S:1:pos:R:3:forces:R:3 energy=-47.62516238794852 pbc="F F F"
Xe       0.00000000       0.00000000       0.00000000       0.00000000       0.00000000       0.00594669
Xe       0.00000000       0.00000000       4.92727273       0.00000000       0.00000000      -0.00594669
2
Properties=species:S:1:pos:R:3:forces:R:3 energy=-47.62472280807843 pbc="F F F"
Xe       0.00000000       0.00000000       0.00000000       0.00000000       0.00000000       0.00871688
Xe       0.00000000       0.00000000       4.98686869       0.00000000       0.00000000      -0.00871688
2
Properties=species:S:1:pos:R:3:forces:R:3 energy=-47.62414356600577 pbc="F F F"
Xe       0.00000000       0.00000000       0.00000000       0.00000000       0.00000000       0.01058804
Xe       0.00000000       0.00000000       5.04646465       0.00000000       0.00000000      -0.01058804
2
Properties=species:S:1:pos:R:3:forces:R:3 energy=-47.623471093044955 pbc="F F F"
Xe       0.00000000       0.00000000       0.00000000       0.00000000       0.00000000       0.01192828
Xe       0.00000000       0.00000000       5.10606061       0.00000000       0.00000000      -0.01192828
2
Properties=species:S:1:pos:R:3:forces:R:3 energy=-47.62272513267669 pbc="F F F"
Xe       0.00000000       0.00000000       0.00000000       0.00000000       0.00000000       0.01303522
Xe       0.00000000       0.00000000       5.16565657       0.00000000       0.00000000      -0.01303522
2
Properties=species:S:1:pos:R:3:forces:R:3 energy=-47.621917800571076 pbc="F F F"
Xe       0.00000000       0.00000000       0.00000000       0.00000000       0.00000000       0.01413494
Xe       0.00000000       0.00000000       5.22525253       0.00000000       0.00000000      -0.01413494
2
Properties=species:S:1:pos:R:3:forces:R:3 energy=-47.62103831075136 pbc="F F F"
Xe       0.00000000       0.00000000       0.00000000       0.00000000       0.00000000       0.01534546
Xe       0.00000000       0.00000000       5.28484848       0.00000000       0.00000000      -0.01534546
2
Properties=species:S:1:pos:R:3:forces:R:3 energy=-47.62008730747337 pbc="F F F"
Xe       0.00000000       0.00000000       0.00000000       0.00000000       0.00000000       0.01665053
Xe       0.00000000       0.00000000       5.34444444       0.00000000       0.00000000      -0.01665053
2
Properties=species:S:1:pos:R:3:forces:R:3 energy=-47.619053967142484 pbc="F F F"
Xe       0.00000000       0.00000000       0.00000000       0.00000000       0.00000000       0.01805667
Xe       0.00000000       0.00000000       5.40404040       0.00000000       0.00000000      -0.01805667
2
Properties=species:S:1:pos:R:3:forces:R:3 energy=-47.61793124759919 pbc="F F F"
Xe       0.00000000       0.00000000       0.00000000       0.00000000       0.00000000       0.01956220
Xe       0.00000000       0.00000000       5.46363636       0.00000000       0.00000000      -0.01956220
2
Properties=species:S:1:pos:R:3:forces:R:3 energy=-47.61674640173747 pbc="F F F"
Xe       0.00000000       0.00000000       0.00000000       0.00000000       0.00000000       0.01963286
Xe       0.00000000       0.00000000       5.52323232       0.00000000       0.00000000      -0.01963286
2
Properties=species:S:1:pos:R:3:forces:R:3 energy=-47.61567160174561 pbc="F F F"
Xe       0.00000000       0.00000000       0.00000000       0.00000000       0.00000000       0.01584003
Xe       0.00000000       0.00000000       5.58282828       0.00000000       0.00000000      -0.01584003
2
Properties=species:S:1:pos:R:3:forces:R:3 energy=-47.6148980398412 pbc="F F F"
Xe       0.00000000       0.00000000       0.00000000       0.00000000       0.00000000       0.01033565
Xe       0.00000000       0.00000000       5.64242424       0.00000000       0.00000000      -0.01033565
2
Properties=species:S:1:pos:R:3:forces:R:3 energy=-47.614368909758 pbc="F F F"
Xe       0.00000000       0.00000000       0.00000000       0.00000000       0.00000000       0.00809038
Xe       0.00000000       0.00000000       5.70202020       0.00000000       0.00000000      -0.00809038
2
Properties=species:S:1:pos:R:3:forces:R:3 energy=-47.61385187926237 pbc="F F F"
Xe       0.00000000       0.00000000       0.00000000       0.00000000       0.00000000       0.00962842
Xe       0.00000000       0.00000000       5.76161616       0.00000000       0.00000000      -0.00962842
2
Properties=species:S:1:pos:R:3:forces:R:3 energy=-47.6132404441096 pbc="F F F"
Xe       0.00000000       0.00000000       0.00000000       0.00000000       0.00000000       0.01033698
Xe       0.00000000       0.00000000       5.82121212       0.00000000       0.00000000      -0.01033698
2
Properties=species:S:1:pos:R:3:forces:R:3 energy=-47.61269127060879 pbc="F F F"
Xe       0.00000000       0.00000000       0.00000000       0.00000000       0.00000000       0.00773185
Xe       0.00000000       0.00000000       5.88080808       0.00000000       0.00000000      -0.00773185
2
Properties=species:S:1:pos:R:3:forces:R:3 energy=-47.612334266751276 pbc="F F F"
Xe       0.00000000       0.00000000       0.00000000       0.00000000       0.00000000       0.00428912
Xe       0.00000000       0.00000000       5.94040404       0.00000000       0.00000000      -0.00428912
2
Properties=species:S:1:pos:R:3:forces:R:3 energy=-47.612139080081654 pbc="F F F"
Xe       0.00000000       0.00000000       0.00000000       0.00000000       0.00000000       0.00278093
Xe       0.00000000       0.00000000       6.00000000       0.00000000       0.00000000      -0.00278093
