2
Properties=species:S:1:pos:R:3:forces:R:3 energy=18447.17670248821 pbc="F F F"
Zn       0.00000000       0.00000000       0.00000000       0.00000000       0.00000000 -425169.53125000
Zn       0.00000000       0.00000000       0.10000000       0.00000000       0.00000000  425169.53125000
2
Properties=species:S:1:pos:R:3:forces:R:3 energy=5601.450139988209 pbc="F F F"
Zn       0.00000000       0.00000000       0.00000000       0.00000000       0.00000000  -99159.46875000
Zn       0.00000000       0.00000000       0.15959596       0.00000000       0.00000000   99159.46875000
2
Properties=species:S:1:pos:R:3:forces:R:3 energy=2108.7919368632092 pbc="F F F"
Zn       0.00000000       0.00000000       0.00000000       0.00000000       0.00000000  -32564.00000000
Zn       0.00000000       0.00000000       0.21919192       0.00000000       0.00000000   32564.00000000
2
Properties=species:S:1:pos:R:3:forces:R:3 energy=856.8567561991467 pbc="F F F"
Zn       0.00000000       0.00000000       0.00000000       0.00000000       0.00000000  -12916.32519531
Zn       0.00000000       0.00000000       0.27878788       0.00000000       0.00000000   12916.32519531
2
Properties=species:S:1:pos:R:3:forces:R:3 energy=336.5457210436887 pbc="F F F"
Zn       0.00000000       0.00000000       0.00000000       0.00000000       0.00000000   -5615.27978516
Zn       0.00000000       0.00000000       0.33838384       0.00000000       0.00000000    5615.27978516
2
Properties=species:S:1:pos:R:3:forces:R:3 energy=182.3445339098996 pbc="F F F"
Zn       0.00000000       0.00000000       0.00000000       0.00000000       0.00000000    -654.67602539
Zn       0.00000000       0.00000000       0.39797980       0.00000000       0.00000000     654.67602539
2
Properties=species:S:1:pos:R:3:forces:R:3 energy=236.87975119584783 pbc="F F F"
Zn       0.00000000       0.00000000       0.00000000       0.00000000       0.00000000    1277.23413086
Zn       0.00000000       0.00000000       0.45757576       0.00000000       0.00000000   -1277.23413086
2
Properties=species:S:1:pos:R:3:forces:R:3 energy=177.31505393339066 pbc="F F F"
Zn       0.00000000       0.00000000       0.00000000       0.00000000       0.00000000   -2703.47827148
Zn       0.00000000       0.00000000       0.51717172       0.00000000       0.00000000    2703.47827148
2
Properties=species:S:1:pos:R:3:forces:R:3 energy=18.65319251767269 pbc="F F F"
Zn       0.00000000       0.00000000       0.00000000       0.00000000       0.00000000   -2073.75000000
Zn       0.00000000       0.00000000       0.57676768       0.00000000       0.00000000    2073.75000000
2
Properties=species:S:1:pos:R:3:forces:R:3 energy=28.735147480854977 pbc="F F F"
Zn       0.00000000       0.00000000       0.00000000       0.00000000       0.00000000      -4.49367142
Zn       0.00000000       0.00000000       0.63636364       0.00000000       0.00000000       4.49367142
2
Properties=species:S:1:pos:R:3:forces:R:3 energy=13.102764145384736 pbc="F F F"
Zn       0.00000000       0.00000000       0.00000000       0.00000000       0.00000000     -46.98881149
Zn       0.00000000       0.00000000       0.69595960       0.00000000       0.00000000      46.98881149
2
Properties=species:S:1:pos:R:3:forces:R:3 energy=15.349098238735492 pbc="F F F"
Zn       0.00000000       0.00000000       0.00000000       0.00000000       0.00000000     123.91677856
Zn       0.00000000       0.00000000       0.75555556       0.00000000       0.00000000    -123.91677856
2
Properties=species:S:1:pos:R:3:forces:R:3 energy=27.055543959631706 pbc="F F F"
Zn       0.00000000       0.00000000       0.00000000       0.00000000       0.00000000     232.05902100
Zn       0.00000000       0.00000000       0.81515152       0.00000000       0.00000000    -232.05902100
2
Properties=species:S:1:pos:R:3:forces:R:3 energy=38.58756837960658 pbc="F F F"
Zn       0.00000000       0.00000000       0.00000000       0.00000000       0.00000000     139.95277405
Zn       0.00000000       0.00000000       0.87474747       0.00000000       0.00000000    -139.95277405
2
Properties=species:S:1:pos:R:3:forces:R:3 energy=43.6283780632233 pbc="F F F"
Zn       0.00000000       0.00000000       0.00000000       0.00000000       0.00000000      32.26234818
Zn       0.00000000       0.00000000       0.93434343       0.00000000       0.00000000     -32.26234818
2
Properties=species:S:1:pos:R:3:forces:R:3 energy=42.57140181772384 pbc="F F F"
Zn       0.00000000       0.00000000       0.00000000       0.00000000       0.00000000     -68.03267670
Zn       0.00000000       0.00000000       0.99393939       0.00000000       0.00000000      68.03267670
2
Properties=species:S:1:pos:R:3:forces:R:3 energy=35.90661843814312 pbc="F F F"
Zn       0.00000000       0.00000000       0.00000000       0.00000000       0.00000000    -148.73686218
Zn       0.00000000       0.00000000       1.05353535       0.00000000       0.00000000     148.73686218
2
Properties=species:S:1:pos:R:3:forces:R:3 energy=25.94170615505696 pbc="F F F"
Zn       0.00000000       0.00000000       0.00000000       0.00000000       0.00000000    -175.27441406
Zn       0.00000000       0.00000000       1.11313131       0.00000000       0.00000000     175.27441406
2
Properties=species:S:1:pos:R:3:forces:R:3 energy=16.094614651314668 pbc="F F F"
Zn       0.00000000       0.00000000       0.00000000       0.00000000       0.00000000    -147.23712158
Zn       0.00000000       0.00000000       1.17272727       0.00000000       0.00000000     147.23712158
2
Properties=species:S:1:pos:R:3:forces:R:3 energy=9.199318776260462 pbc="F F F"
Zn       0.00000000       0.00000000       0.00000000       0.00000000       0.00000000     -83.98406982
Zn       0.00000000       0.00000000       1.23232323       0.00000000       0.00000000      83.98406982
2
Properties=species:S:1:pos:R:3:forces:R:3 energy=5.183081800869411 pbc="F F F"
Zn       0.00000000       0.00000000       0.00000000       0.00000000       0.00000000     -58.09768295
Zn       0.00000000       0.00000000       1.29191919       0.00000000       0.00000000      58.09768295
2
Properties=species:S:1:pos:R:3:forces:R:3 energy=1.9354854181106576 pbc="F F F"
Zn       0.00000000       0.00000000       0.00000000       0.00000000       0.00000000     -51.34968948
Zn       0.00000000       0.00000000       1.35151515       0.00000000       0.00000000      51.34968948
2
Properties=species:S:1:pos:R:3:forces:R:3 energy=-0.9434976304701818 pbc="F F F"
Zn       0.00000000       0.00000000       0.00000000       0.00000000       0.00000000     -45.22395706
Zn       0.00000000       0.00000000       1.41111111       0.00000000       0.00000000      45.22395706
2
Properties=species:S:1:pos:R:3:forces:R:3 energy=-3.449888602161816 pbc="F F F"
Zn       0.00000000       0.00000000       0.00000000       0.00000000       0.00000000     -38.86999893
Zn       0.00000000       0.00000000       1.47070707       0.00000000       0.00000000      38.86999893
2
Properties=species:S:1:pos:R:3:forces:R:3 energy=-5.57882088346438 pbc="F F F"
Zn       0.00000000       0.00000000       0.00000000       0.00000000       0.00000000     -32.63047409
Zn       0.00000000       0.00000000       1.53030303       0.00000000       0.00000000      32.63047409
2
Properties=species:S:1:pos:R:3:forces:R:3 energy=-7.348696558940094 pbc="F F F"
Zn       0.00000000       0.00000000       0.00000000       0.00000000       0.00000000     -26.86327744
Zn       0.00000000       0.00000000       1.58989899       0.00000000       0.00000000      26.86327744
2
Properties=species:S:1:pos:R:3:forces:R:3 energy=-8.793419716090849 pbc="F F F"
Zn       0.00000000       0.00000000       0.00000000       0.00000000       0.00000000     -21.73041725
Zn       0.00000000       0.00000000       1.64949495       0.00000000       0.00000000      21.73041725
2
Properties=species:S:1:pos:R:3:forces:R:3 energy=-9.951721984573783 pbc="F F F"
Zn       0.00000000       0.00000000       0.00000000       0.00000000       0.00000000     -17.24845314
Zn       0.00000000       0.00000000       1.70909091       0.00000000       0.00000000      17.24845314
2
Properties=species:S:1:pos:R:3:forces:R:3 energy=-10.862181545931849 pbc="F F F"
Zn       0.00000000       0.00000000       0.00000000       0.00000000       0.00000000     -13.41790295
Zn       0.00000000       0.00000000       1.76868687       0.00000000       0.00000000      13.41790295
2
Properties=species:S:1:pos:R:3:forces:R:3 energy=-11.56509337287557 pbc="F F F"
Zn       0.00000000       0.00000000       0.00000000       0.00000000       0.00000000     -10.29447937
Zn       0.00000000       0.00000000       1.82828283       0.00000000       0.00000000      10.29447937
2
Properties=species:S:1:pos:R:3:forces:R:3 energy=-12.104092552448044 pbc="F F F"
Zn       0.00000000       0.00000000       0.00000000       0.00000000       0.00000000      -7.91724110
Zn       0.00000000       0.00000000       1.88787879       0.00000000       0.00000000       7.91724110
2
Properties=species:S:1:pos:R:3:forces:R:3 energy=-12.52262692191301 pbc="F F F"
Zn       0.00000000       0.00000000       0.00000000       0.00000000       0.00000000      -6.23472691
Zn       0.00000000       0.00000000       1.94747475       0.00000000       0.00000000       6.23472691
2
Properties=species:S:1:pos:R:3:forces:R:3 energy=-12.858255438075252 pbc="F F F"
Zn       0.00000000       0.00000000       0.00000000       0.00000000       0.00000000      -5.10612726
Zn       0.00000000       0.00000000       2.00707071       0.00000000       0.00000000       5.10612726
2
Properties=species:S:1:pos:R:3:forces:R:3 energy=-13.138547098791857 pbc="F F F"
Zn       0.00000000       0.00000000       0.00000000       0.00000000       0.00000000      -4.34612274
Zn       0.00000000       0.00000000       2.06666667       0.00000000       0.00000000       4.34612274
2
Properties=species:S:1:pos:R:3:forces:R:3 energy=-13.380137773960604 pbc="F F F"
Zn       0.00000000       0.00000000       0.00000000       0.00000000       0.00000000      -3.78267527
Zn       0.00000000       0.00000000       2.12626263       0.00000000       0.00000000       3.78267527
2
Properties=species:S:1:pos:R:3:forces:R:3 energy=-13.591070993346108 pbc="F F F"
Zn       0.00000000       0.00000000       0.00000000       0.00000000       0.00000000      -3.30528402
Zn       0.00000000       0.00000000       2.18585859       0.00000000       0.00000000       3.30528402
2
Properties=species:S:1:pos:R:3:forces:R:3 energy=-13.775046761744687 pbc="F F F"
Zn       0.00000000       0.00000000       0.00000000       0.00000000       0.00000000      -2.87700152
Zn       0.00000000       0.00000000       2.24545455       0.00000000       0.00000000       2.87700152
2
Properties=species:S:1:pos:R:3:forces:R:3 energy=-13.935105623771893 pbc="F F F"
Zn       0.00000000       0.00000000       0.00000000       0.00000000       0.00000000      -2.50509548
Zn       0.00000000       0.00000000       2.30505051       0.00000000       0.00000000       2.50509548
2
Properties=species:S:1:pos:R:3:forces:R:3 energy=-14.074932707600635 pbc="F F F"
Zn       0.00000000       0.00000000       0.00000000       0.00000000       0.00000000      -2.19767785
Zn       0.00000000       0.00000000       2.36464646       0.00000000       0.00000000       2.19767785
2
Properties=species:S:1:pos:R:3:forces:R:3 energy=-14.198041851751828 pbc="F F F"
Zn       0.00000000       0.00000000       0.00000000       0.00000000       0.00000000      -1.93955481
Zn       0.00000000       0.00000000       2.42424242       0.00000000       0.00000000       1.93955481
2
Properties=species:S:1:pos:R:3:forces:R:3 energy=-14.306448930732675 pbc="F F F"
Zn       0.00000000       0.00000000       0.00000000       0.00000000       0.00000000      -1.69860864
Zn       0.00000000       0.00000000       2.48383838       0.00000000       0.00000000       1.69860864
2
Properties=species:S:1:pos:R:3:forces:R:3 energy=-14.400285917642146 pbc="F F F"
Zn       0.00000000       0.00000000       0.00000000       0.00000000       0.00000000      -1.44745994
Zn       0.00000000       0.00000000       2.54343434       0.00000000       0.00000000       1.44745994
2
Properties=species:S:1:pos:R:3:forces:R:3 energy=-14.478615587626146 pbc="F F F"
Zn       0.00000000       0.00000000       0.00000000       0.00000000       0.00000000      -1.17901921
Zn       0.00000000       0.00000000       2.60303030       0.00000000       0.00000000       1.17901921
2
Properties=species:S:1:pos:R:3:forces:R:3 energy=-14.540770171053587 pbc="F F F"
Zn       0.00000000       0.00000000       0.00000000       0.00000000       0.00000000      -0.90871006
Zn       0.00000000       0.00000000       2.66262626       0.00000000       0.00000000       0.90871006
2
Properties=species:S:1:pos:R:3:forces:R:3 energy=-14.587441960788212 pbc="F F F"
Zn       0.00000000       0.00000000       0.00000000       0.00000000       0.00000000      -0.66410965
Zn       0.00000000       0.00000000       2.72222222       0.00000000       0.00000000       0.66410965
2
Properties=species:S:1:pos:R:3:forces:R:3 energy=-14.620879004053524 pbc="F F F"
Zn       0.00000000       0.00000000       0.00000000       0.00000000       0.00000000      -0.46690419
Zn       0.00000000       0.00000000       2.78181818       0.00000000       0.00000000       0.46690419
2
Properties=species:S:1:pos:R:3:forces:R:3 energy=-14.644165503662993 pbc="F F F"
Zn       0.00000000       0.00000000       0.00000000       0.00000000       0.00000000      -0.32326129
Zn       0.00000000       0.00000000       2.84141414       0.00000000       0.00000000       0.32326129
2
Properties=species:S:1:pos:R:3:forces:R:3 energy=-14.660353265454564 pbc="F F F"
Zn       0.00000000       0.00000000       0.00000000       0.00000000       0.00000000      -0.22695670
Zn       0.00000000       0.00000000       2.90101010       0.00000000       0.00000000       0.22695670
2
Properties=species:S:1:pos:R:3:forces:R:3 energy=-14.671935893656704 pbc="F F F"
Zn       0.00000000       0.00000000       0.00000000       0.00000000       0.00000000      -0.16691463
Zn       0.00000000       0.00000000       2.96060606       0.00000000       0.00000000       0.16691463
2
Properties=species:S:1:pos:R:3:forces:R:3 energy=-14.680765518811947 pbc="F F F"
Zn       0.00000000       0.00000000       0.00000000       0.00000000       0.00000000      -0.13302059
Zn       0.00000000       0.00000000       3.02020202       0.00000000       0.00000000       0.13302059
2
Properties=species:S:1:pos:R:3:forces:R:3 energy=-14.688163446782587 pbc="F F F"
Zn       0.00000000       0.00000000       0.00000000       0.00000000       0.00000000      -0.11791027
Zn       0.00000000       0.00000000       3.07979798       0.00000000       0.00000000       0.11791027
2
Properties=species:S:1:pos:R:3:forces:R:3 energy=-14.695079931581622 pbc="F F F"
Zn       0.00000000       0.00000000       0.00000000       0.00000000       0.00000000      -0.11597100
Zn       0.00000000       0.00000000       3.13939394       0.00000000       0.00000000       0.11597100
2
Properties=species:S:1:pos:R:3:forces:R:3 energy=-14.70214617097407 pbc="F F F"
Zn       0.00000000       0.00000000       0.00000000       0.00000000       0.00000000      -0.12207947
Zn       0.00000000       0.00000000       3.19898990       0.00000000       0.00000000       0.12207947
2
Properties=species:S:1:pos:R:3:forces:R:3 energy=-14.70969376485369 pbc="F F F"
Zn       0.00000000       0.00000000       0.00000000       0.00000000       0.00000000      -0.13135406
Zn       0.00000000       0.00000000       3.25858586       0.00000000       0.00000000       0.13135406
2
Properties=species:S:1:pos:R:3:forces:R:3 energy=-14.717783426842788 pbc="F F F"
Zn       0.00000000       0.00000000       0.00000000       0.00000000       0.00000000      -0.13968447
Zn       0.00000000       0.00000000       3.31818182       0.00000000       0.00000000       0.13968447
2
Properties=species:S:1:pos:R:3:forces:R:3 energy=-14.726268904230068 pbc="F F F"
Zn       0.00000000       0.00000000       0.00000000       0.00000000       0.00000000      -0.14435156
Zn       0.00000000       0.00000000       3.37777778       0.00000000       0.00000000       0.14435156
2
Properties=species:S:1:pos:R:3:forces:R:3 energy=-14.734893310163985 pbc="F F F"
Zn       0.00000000       0.00000000       0.00000000       0.00000000       0.00000000      -0.14428051
Zn       0.00000000       0.00000000       3.43737374       0.00000000       0.00000000       0.14428051
2
Properties=species:S:1:pos:R:3:forces:R:3 energy=-14.743378773790205 pbc="F F F"
Zn       0.00000000       0.00000000       0.00000000       0.00000000       0.00000000      -0.13984698
Zn       0.00000000       0.00000000       3.49696970       0.00000000       0.00000000       0.13984698
2
Properties=species:S:1:pos:R:3:forces:R:3 energy=-14.751500836351756 pbc="F F F"
Zn       0.00000000       0.00000000       0.00000000       0.00000000       0.00000000      -0.13237689
Zn       0.00000000       0.00000000       3.55656566       0.00000000       0.00000000       0.13237689
2
Properties=species:S:1:pos:R:3:forces:R:3 energy=-14.759129450473129 pbc="F F F"
Zn       0.00000000       0.00000000       0.00000000       0.00000000       0.00000000      -0.12355486
Zn       0.00000000       0.00000000       3.61616162       0.00000000       0.00000000       0.12355486
2
Properties=species:S:1:pos:R:3:forces:R:3 energy=-14.766231860190151 pbc="F F F"
Zn       0.00000000       0.00000000       0.00000000       0.00000000       0.00000000      -0.11494018
Zn       0.00000000       0.00000000       3.67575758       0.00000000       0.00000000       0.11494018
2
Properties=species:S:1:pos:R:3:forces:R:3 energy=-14.772857339785059 pbc="F F F"
Zn       0.00000000       0.00000000       0.00000000       0.00000000       0.00000000      -0.10767879
Zn       0.00000000       0.00000000       3.73535354       0.00000000       0.00000000       0.10767879
2
Properties=species:S:1:pos:R:3:forces:R:3 energy=-14.779106673832512 pbc="F F F"
Zn       0.00000000       0.00000000       0.00000000       0.00000000       0.00000000      -0.10241282
Zn       0.00000000       0.00000000       3.79494949       0.00000000       0.00000000       0.10241282
2
Properties=species:S:1:pos:R:3:forces:R:3 energy=-14.78510738463407 pbc="F F F"
Zn       0.00000000       0.00000000       0.00000000       0.00000000       0.00000000      -0.09931904
Zn       0.00000000       0.00000000       3.85454545       0.00000000       0.00000000       0.09931904
2
Properties=species:S:1:pos:R:3:forces:R:3 energy=-14.790984153267232 pbc="F F F"
Zn       0.00000000       0.00000000       0.00000000       0.00000000       0.00000000      -0.09820927
Zn       0.00000000       0.00000000       3.91414141       0.00000000       0.00000000       0.09820927
2
Properties=species:S:1:pos:R:3:forces:R:3 energy=-14.796843582971128 pbc="F F F"
Zn       0.00000000       0.00000000       0.00000000       0.00000000       0.00000000      -0.09864083
Zn       0.00000000       0.00000000       3.97373737       0.00000000       0.00000000       0.09864083
2
Properties=species:S:1:pos:R:3:forces:R:3 energy=-14.802760844538271 pbc="F F F"
Zn       0.00000000       0.00000000       0.00000000       0.00000000       0.00000000      -0.10001657
Zn       0.00000000       0.00000000       4.03333333       0.00000000       0.00000000       0.10001657
2
Properties=species:S:1:pos:R:3:forces:R:3 energy=-14.808771103541128 pbc="F F F"
Zn       0.00000000       0.00000000       0.00000000       0.00000000       0.00000000      -0.10168225
Zn       0.00000000       0.00000000       4.09292929       0.00000000       0.00000000       0.10168225
2
Properties=species:S:1:pos:R:3:forces:R:3 energy=-14.814873341365024 pbc="F F F"
Zn       0.00000000       0.00000000       0.00000000       0.00000000       0.00000000      -0.10302017
Zn       0.00000000       0.00000000       4.15252525       0.00000000       0.00000000       0.10302017
2
Properties=species:S:1:pos:R:3:forces:R:3 energy=-14.821034169113467 pbc="F F F"
Zn       0.00000000       0.00000000       0.00000000       0.00000000       0.00000000      -0.10354499
Zn       0.00000000       0.00000000       4.21212121       0.00000000       0.00000000       0.10354499
2
Properties=species:S:1:pos:R:3:forces:R:3 energy=-14.827193560741408 pbc="F F F"
Zn       0.00000000       0.00000000       0.00000000       0.00000000       0.00000000      -0.10296720
Zn       0.00000000       0.00000000       4.27171717       0.00000000       0.00000000       0.10296720
2
Properties=species:S:1:pos:R:3:forces:R:3 energy=-14.833282975243133 pbc="F F F"
Zn       0.00000000       0.00000000       0.00000000       0.00000000       0.00000000      -0.10120703
Zn       0.00000000       0.00000000       4.33131313       0.00000000       0.00000000       0.10120703
2
Properties=species:S:1:pos:R:3:forces:R:3 energy=-14.839233947640652 pbc="F F F"
Zn       0.00000000       0.00000000       0.00000000       0.00000000       0.00000000      -0.09833942
Zn       0.00000000       0.00000000       4.39090909       0.00000000       0.00000000       0.09833942
2
Properties=species:S:1:pos:R:3:forces:R:3 energy=-14.844984759952196 pbc="F F F"
Zn       0.00000000       0.00000000       0.00000000       0.00000000       0.00000000      -0.09449568
Zn       0.00000000       0.00000000       4.45050505       0.00000000       0.00000000       0.09449568
2
Properties=species:S:1:pos:R:3:forces:R:3 energy=-14.850479497813307 pbc="F F F"
Zn       0.00000000       0.00000000       0.00000000       0.00000000       0.00000000      -0.08977690
Zn       0.00000000       0.00000000       4.51010101       0.00000000       0.00000000       0.08977690
2
Properties=species:S:1:pos:R:3:forces:R:3 energy=-14.85566898989597 pbc="F F F"
Zn       0.00000000       0.00000000       0.00000000       0.00000000       0.00000000      -0.08421069
Zn       0.00000000       0.00000000       4.56969697       0.00000000       0.00000000       0.08421069
2
Properties=species:S:1:pos:R:3:forces:R:3 energy=-14.860500337290008 pbc="F F F"
Zn       0.00000000       0.00000000       0.00000000       0.00000000       0.00000000      -0.07778103
Zn       0.00000000       0.00000000       4.62929293       0.00000000       0.00000000       0.07778103
2
Properties=species:S:1:pos:R:3:forces:R:3 energy=-14.864922612582278 pbc="F F F"
Zn       0.00000000       0.00000000       0.00000000       0.00000000       0.00000000      -0.07049444
Zn       0.00000000       0.00000000       4.68888889       0.00000000       0.00000000       0.07049444
2
Properties=species:S:1:pos:R:3:forces:R:3 energy=-14.868886870152089 pbc="F F F"
Zn       0.00000000       0.00000000       0.00000000       0.00000000       0.00000000      -0.06244405
Zn       0.00000000       0.00000000       4.74848485       0.00000000       0.00000000       0.06244405
2
Properties=species:S:1:pos:R:3:forces:R:3 energy=-14.87235470468943 pbc="F F F"
Zn       0.00000000       0.00000000       0.00000000       0.00000000       0.00000000      -0.05384145
Zn       0.00000000       0.00000000       4.80808081       0.00000000       0.00000000       0.05384145
2
Properties=species:S:1:pos:R:3:forces:R:3 energy=-14.875300170422936 pbc="F F F"
Zn       0.00000000       0.00000000       0.00000000       0.00000000       0.00000000      -0.04500565
Zn       0.00000000       0.00000000       4.86767677       0.00000000       0.00000000       0.04500565
2
Properties=species:S:1:pos:R:3:forces:R:3 energy=-14.877722164630798 pbc="F F F"
Zn       0.00000000       0.00000000       0.00000000       0.00000000       0.00000000      -0.03634499
Zn       0.00000000       0.00000000       4.92727273       0.00000000       0.00000000       0.03634499
2
Properties=species:S:1:pos:R:3:forces:R:3 energy=-14.87964535755642 pbc="F F F"
Zn       0.00000000       0.00000000       0.00000000       0.00000000       0.00000000      -0.02833845
Zn       0.00000000       0.00000000       4.98686869       0.00000000       0.00000000       0.02833845
2
Properties=species:S:1:pos:R:3:forces:R:3 energy=-14.881123062934826 pbc="F F F"
Zn       0.00000000       0.00000000       0.00000000       0.00000000       0.00000000      -0.02152001
Zn       0.00000000       0.00000000       5.04646465       0.00000000       0.00000000       0.02152001
2
Properties=species:S:1:pos:R:3:forces:R:3 energy=-14.88224387886684 pbc="F F F"
Zn       0.00000000       0.00000000       0.00000000       0.00000000       0.00000000      -0.01641428
Zn       0.00000000       0.00000000       5.10606061       0.00000000       0.00000000       0.01641428
2
Properties=species:S:1:pos:R:3:forces:R:3 energy=-14.88312216295525 pbc="F F F"
Zn       0.00000000       0.00000000       0.00000000       0.00000000       0.00000000      -0.01340040
Zn       0.00000000       0.00000000       5.16565657       0.00000000       0.00000000       0.01340040
2
Properties=species:S:1:pos:R:3:forces:R:3 energy=-14.883884653145934 pbc="F F F"
Zn       0.00000000       0.00000000       0.00000000       0.00000000       0.00000000      -0.01253988
Zn       0.00000000       0.00000000       5.22525253       0.00000000       0.00000000       0.01253988
2
Properties=species:S:1:pos:R:3:forces:R:3 energy=-14.88465233920434 pbc="F F F"
Zn       0.00000000       0.00000000       0.00000000       0.00000000       0.00000000      -0.01345822
Zn       0.00000000       0.00000000       5.28484848       0.00000000       0.00000000       0.01345822
2
Properties=species:S:1:pos:R:3:forces:R:3 energy=-14.885506128856184 pbc="F F F"
Zn       0.00000000       0.00000000       0.00000000       0.00000000       0.00000000      -0.01523940
Zn       0.00000000       0.00000000       5.34444444       0.00000000       0.00000000       0.01523940
2
Properties=species:S:1:pos:R:3:forces:R:3 energy=-14.886451539662984 pbc="F F F"
Zn       0.00000000       0.00000000       0.00000000       0.00000000       0.00000000      -0.01613469
Zn       0.00000000       0.00000000       5.40404040       0.00000000       0.00000000       0.01613469
2
Properties=species:S:1:pos:R:3:forces:R:3 energy=-14.887371019266025 pbc="F F F"
Zn       0.00000000       0.00000000       0.00000000       0.00000000       0.00000000      -0.01420328
Zn       0.00000000       0.00000000       5.46363636       0.00000000       0.00000000       0.01420328
2
Properties=species:S:1:pos:R:3:forces:R:3 energy=-14.888118345680429 pbc="F F F"
Zn       0.00000000       0.00000000       0.00000000       0.00000000       0.00000000      -0.01115613
Zn       0.00000000       0.00000000       5.52323232       0.00000000       0.00000000       0.01115613
2
Properties=species:S:1:pos:R:3:forces:R:3 energy=-14.888779937225683 pbc="F F F"
Zn       0.00000000       0.00000000       0.00000000       0.00000000       0.00000000      -0.01180276
Zn       0.00000000       0.00000000       5.58282828       0.00000000       0.00000000       0.01180276
2
Properties=species:S:1:pos:R:3:forces:R:3 energy=-14.889571837088505 pbc="F F F"
Zn       0.00000000       0.00000000       0.00000000       0.00000000       0.00000000      -0.01459090
Zn       0.00000000       0.00000000       5.64242424       0.00000000       0.00000000       0.01459090
2
Properties=species:S:1:pos:R:3:forces:R:3 energy=-14.89042965118579 pbc="F F F"
Zn       0.00000000       0.00000000       0.00000000       0.00000000       0.00000000      -0.01304900
Zn       0.00000000       0.00000000       5.70202020       0.00000000       0.00000000       0.01304900
2
Properties=species:S:1:pos:R:3:forces:R:3 energy=-14.89099899875016 pbc="F F F"
Zn       0.00000000       0.00000000       0.00000000       0.00000000       0.00000000      -0.00541569
Zn       0.00000000       0.00000000       5.76161616       0.00000000       0.00000000       0.00541569
2
Properties=species:S:1:pos:R:3:forces:R:3 energy=-14.891073250029125 pbc="F F F"
Zn       0.00000000       0.00000000       0.00000000       0.00000000       0.00000000       0.00230018
Zn       0.00000000       0.00000000       5.82121212       0.00000000       0.00000000      -0.00230018
2
Properties=species:S:1:pos:R:3:forces:R:3 energy=-14.890833860132373 pbc="F F F"
Zn       0.00000000       0.00000000       0.00000000       0.00000000       0.00000000       0.00485527
Zn       0.00000000       0.00000000       5.88080808       0.00000000       0.00000000      -0.00485527
2
Properties=species:S:1:pos:R:3:forces:R:3 energy=-14.890560449663719 pbc="F F F"
Zn       0.00000000       0.00000000       0.00000000       0.00000000       0.00000000       0.00407366
Zn       0.00000000       0.00000000       5.94040404       0.00000000       0.00000000      -0.00407366
2
Properties=species:S:1:pos:R:3:forces:R:3 energy=-14.890344709157802 pbc="F F F"
Zn       0.00000000       0.00000000       0.00000000       0.00000000       0.00000000       0.00336767
Zn       0.00000000       0.00000000       6.00000000       0.00000000       0.00000000      -0.00336767
