2
Properties=species:S:1:pos:R:3:forces:R:3 energy=4663768.984504031 pbc="F F F"
Zr       0.00000000       0.00000000       0.00000000       0.00000000       0.00000000 -781122.06250000
Zr       0.00000000       0.00000000       0.10000000       0.00000000       0.00000000  781122.06250000
2
Properties=species:S:1:pos:R:3:forces:R:3 energy=4629204.484504031 pbc="F F F"
Zr       0.00000000       0.00000000       0.00000000       0.00000000       0.00000000 -601506.93750000
Zr       0.00000000       0.00000000       0.15959596       0.00000000       0.00000000  601506.93750000
2
Properties=species:S:1:pos:R:3:forces:R:3 energy=4573229.484504031 pbc="F F F"
Zr       0.00000000       0.00000000       0.00000000       0.00000000       0.00000000 -1421791.12500000
Zr       0.00000000       0.00000000       0.21919192       0.00000000       0.00000000 1421791.12500000
2
Properties=species:S:1:pos:R:3:forces:R:3 energy=4441204.984504031 pbc="F F F"
Zr       0.00000000       0.00000000       0.00000000       0.00000000       0.00000000 -3179627.00000000
Zr       0.00000000       0.00000000       0.27878788       0.00000000       0.00000000 3179627.00000000
2
Properties=species:S:1:pos:R:3:forces:R:3 energy=4173272.234504031 pbc="F F F"
Zr       0.00000000       0.00000000       0.00000000       0.00000000       0.00000000 -5985914.50000000
Zr       0.00000000       0.00000000       0.33838384       0.00000000       0.00000000 5985914.50000000
2
Properties=species:S:1:pos:R:3:forces:R:3 energy=3710925.7345040324 pbc="F F F"
Zr       0.00000000       0.00000000       0.00000000       0.00000000       0.00000000 -9619257.00000000
Zr       0.00000000       0.00000000       0.39797980       0.00000000       0.00000000 9619257.00000000
2
Properties=species:S:1:pos:R:3:forces:R:3 energy=3026949.2345040343 pbc="F F F"
Zr       0.00000000       0.00000000       0.00000000       0.00000000       0.00000000 -13215027.00000000
Zr       0.00000000       0.00000000       0.45757576       0.00000000       0.00000000 13215027.00000000
2
Properties=species:S:1:pos:R:3:forces:R:3 energy=2166983.4845040343 pbc="F F F"
Zr       0.00000000       0.00000000       0.00000000       0.00000000       0.00000000 -15233412.00000000
Zr       0.00000000       0.00000000       0.51717172       0.00000000       0.00000000 15233412.00000000
2
Properties=species:S:1:pos:R:3:forces:R:3 energy=1274395.2345040373 pbc="F F F"
Zr       0.00000000       0.00000000       0.00000000       0.00000000       0.00000000 -14119716.00000000
Zr       0.00000000       0.00000000       0.57676768       0.00000000       0.00000000 14119716.00000000
2
Properties=species:S:1:pos:R:3:forces:R:3 energy=549971.7345040404 pbc="F F F"
Zr       0.00000000       0.00000000       0.00000000       0.00000000       0.00000000 -9725759.00000000
Zr       0.00000000       0.00000000       0.63636364       0.00000000       0.00000000 9725759.00000000
2
Properties=species:S:1:pos:R:3:forces:R:3 energy=138593.14075404676 pbc="F F F"
Zr       0.00000000       0.00000000       0.00000000       0.00000000       0.00000000 -4181816.50000000
Zr       0.00000000       0.00000000       0.69595960       0.00000000       0.00000000 4181816.50000000
2
Properties=species:S:1:pos:R:3:forces:R:3 energy=10206.182746240598 pbc="F F F"
Zr       0.00000000       0.00000000       0.00000000       0.00000000       0.00000000 -609112.37500000
Zr       0.00000000       0.00000000       0.75555556       0.00000000       0.00000000  609112.37500000
2
Properties=species:S:1:pos:R:3:forces:R:3 energy=285.5096810677223 pbc="F F F"
Zr       0.00000000       0.00000000       0.00000000       0.00000000       0.00000000   -6774.00048828
Zr       0.00000000       0.00000000       0.81515152       0.00000000       0.00000000    6774.00048828
2
Properties=species:S:1:pos:R:3:forces:R:3 energy=96.85866485137767 pbc="F F F"
Zr       0.00000000       0.00000000       0.00000000       0.00000000       0.00000000   -3942.29199219
Zr       0.00000000       0.00000000       0.87474747       0.00000000       0.00000000    3942.29199219
2
Properties=species:S:1:pos:R:3:forces:R:3 energy=238.49506319531775 pbc="F F F"
Zr       0.00000000       0.00000000       0.00000000       0.00000000       0.00000000   -1825.83349609
Zr       0.00000000       0.00000000       0.93434343       0.00000000       0.00000000    1825.83349609
2
Properties=species:S:1:pos:R:3:forces:R:3 energy=176.90410558856223 pbc="F F F"
Zr       0.00000000       0.00000000       0.00000000       0.00000000       0.00000000    -739.12072754
Zr       0.00000000       0.00000000       0.99393939       0.00000000       0.00000000     739.12072754
2
Properties=species:S:1:pos:R:3:forces:R:3 energy=137.7081675273119 pbc="F F F"
Zr       0.00000000       0.00000000       0.00000000       0.00000000       0.00000000    -615.60815430
Zr       0.00000000       0.00000000       1.05353535       0.00000000       0.00000000     615.60815430
2
Properties=species:S:1:pos:R:3:forces:R:3 energy=100.59882310983039 pbc="F F F"
Zr       0.00000000       0.00000000       0.00000000       0.00000000       0.00000000    -628.82330322
Zr       0.00000000       0.00000000       1.11313131       0.00000000       0.00000000     628.82330322
2
Properties=species:S:1:pos:R:3:forces:R:3 energy=68.57601130729707 pbc="F F F"
Zr       0.00000000       0.00000000       0.00000000       0.00000000       0.00000000    -446.35748291
Zr       0.00000000       0.00000000       1.17272727       0.00000000       0.00000000     446.35748291
2
Properties=species:S:1:pos:R:3:forces:R:3 energy=43.96613669441295 pbc="F F F"
Zr       0.00000000       0.00000000       0.00000000       0.00000000       0.00000000    -375.68115234
Zr       0.00000000       0.00000000       1.23232323       0.00000000       0.00000000     375.68115234
2
Properties=species:S:1:pos:R:3:forces:R:3 energy=23.771961115166196 pbc="F F F"
Zr       0.00000000       0.00000000       0.00000000       0.00000000       0.00000000    -304.13439941
Zr       0.00000000       0.00000000       1.29191919       0.00000000       0.00000000     304.13439941
2
Properties=species:S:1:pos:R:3:forces:R:3 energy=7.406478963825882 pbc="F F F"
Zr       0.00000000       0.00000000       0.00000000       0.00000000       0.00000000    -246.49797058
Zr       0.00000000       0.00000000       1.35151515       0.00000000       0.00000000     246.49797058
2
Properties=species:S:1:pos:R:3:forces:R:3 energy=-5.634652782941436 pbc="F F F"
Zr       0.00000000       0.00000000       0.00000000       0.00000000       0.00000000    -191.59919739
Zr       0.00000000       0.00000000       1.41111111       0.00000000       0.00000000     191.59919739
2
Properties=species:S:1:pos:R:3:forces:R:3 energy=-15.731295952049063 pbc="F F F"
Zr       0.00000000       0.00000000       0.00000000       0.00000000       0.00000000    -151.77453613
Zr       0.00000000       0.00000000       1.47070707       0.00000000       0.00000000     151.77453613
2
Properties=species:S:1:pos:R:3:forces:R:3 energy=-23.914643308782818 pbc="F F F"
Zr       0.00000000       0.00000000       0.00000000       0.00000000       0.00000000    -120.36725616
Zr       0.00000000       0.00000000       1.53030303       0.00000000       0.00000000     120.36725616
2
Properties=species:S:1:pos:R:3:forces:R:3 energy=-30.19035585596533 pbc="F F F"
Zr       0.00000000       0.00000000       0.00000000       0.00000000       0.00000000     -95.79244232
Zr       0.00000000       0.00000000       1.58989899       0.00000000       0.00000000      95.79244232
2
Properties=species:S:1:pos:R:3:forces:R:3 energy=-35.34840206835807 pbc="F F F"
Zr       0.00000000       0.00000000       0.00000000       0.00000000       0.00000000     -71.94068146
Zr       0.00000000       0.00000000       1.64949495       0.00000000       0.00000000      71.94068146
2
Properties=species:S:1:pos:R:3:forces:R:3 energy=-38.606690792542686 pbc="F F F"
Zr       0.00000000       0.00000000       0.00000000       0.00000000       0.00000000     -40.18098831
Zr       0.00000000       0.00000000       1.70909091       0.00000000       0.00000000      40.18098831
2
Properties=species:S:1:pos:R:3:forces:R:3 energy=-40.4688688616821 pbc="F F F"
Zr       0.00000000       0.00000000       0.00000000       0.00000000       0.00000000     -23.94592667
Zr       0.00000000       0.00000000       1.76868687       0.00000000       0.00000000      23.94592667
2
Properties=species:S:1:pos:R:3:forces:R:3 energy=-41.54414722003521 pbc="F F F"
Zr       0.00000000       0.00000000       0.00000000       0.00000000       0.00000000     -12.38639164
Zr       0.00000000       0.00000000       1.82828283       0.00000000       0.00000000      12.38639164
2
Properties=species:S:1:pos:R:3:forces:R:3 energy=-41.97827019925204 pbc="F F F"
Zr       0.00000000       0.00000000       0.00000000       0.00000000       0.00000000      -2.59742117
Zr       0.00000000       0.00000000       1.88787879       0.00000000       0.00000000       2.59742117
2
Properties=species:S:1:pos:R:3:forces:R:3 energy=-41.91389598229002 pbc="F F F"
Zr       0.00000000       0.00000000       0.00000000       0.00000000       0.00000000       4.24683285
Zr       0.00000000       0.00000000       1.94747475       0.00000000       0.00000000      -4.24683285
2
Properties=species:S:1:pos:R:3:forces:R:3 energy=-41.52338405787665 pbc="F F F"
Zr       0.00000000       0.00000000       0.00000000       0.00000000       0.00000000       8.52427483
Zr       0.00000000       0.00000000       2.00707071       0.00000000       0.00000000      -8.52427483
2
Properties=species:S:1:pos:R:3:forces:R:3 energy=-40.92920144168495 pbc="F F F"
Zr       0.00000000       0.00000000       0.00000000       0.00000000       0.00000000      11.19477463
Zr       0.00000000       0.00000000       2.06666667       0.00000000       0.00000000     -11.19477463
2
Properties=species:S:1:pos:R:3:forces:R:3 energy=-40.21482904787144 pbc="F F F"
Zr       0.00000000       0.00000000       0.00000000       0.00000000       0.00000000      12.55557728
Zr       0.00000000       0.00000000       2.12626263       0.00000000       0.00000000     -12.55557728
2
Properties=species:S:1:pos:R:3:forces:R:3 energy=-39.460657887391356 pbc="F F F"
Zr       0.00000000       0.00000000       0.00000000       0.00000000       0.00000000      12.51066399
Zr       0.00000000       0.00000000       2.18585859       0.00000000       0.00000000     -12.51066399
2
Properties=species:S:1:pos:R:3:forces:R:3 energy=-38.75190086733702 pbc="F F F"
Zr       0.00000000       0.00000000       0.00000000       0.00000000       0.00000000      11.06266499
Zr       0.00000000       0.00000000       2.24545455       0.00000000       0.00000000     -11.06266499
2
Properties=species:S:1:pos:R:3:forces:R:3 energy=-38.16022130552516 pbc="F F F"
Zr       0.00000000       0.00000000       0.00000000       0.00000000       0.00000000       8.72111130
Zr       0.00000000       0.00000000       2.30505051       0.00000000       0.00000000      -8.72111130
2
Properties=species:S:1:pos:R:3:forces:R:3 energy=-37.711117335400104 pbc="F F F"
Zr       0.00000000       0.00000000       0.00000000       0.00000000       0.00000000       6.42752504
Zr       0.00000000       0.00000000       2.36464646       0.00000000       0.00000000      -6.42752504
2
Properties=species:S:1:pos:R:3:forces:R:3 energy=-37.38198040252356 pbc="F F F"
Zr       0.00000000       0.00000000       0.00000000       0.00000000       0.00000000       4.71951008
Zr       0.00000000       0.00000000       2.42424242       0.00000000       0.00000000      -4.71951008
2
Properties=species:S:1:pos:R:3:forces:R:3 energy=-37.13866710463328 pbc="F F F"
Zr       0.00000000       0.00000000       0.00000000       0.00000000       0.00000000       3.51195621
Zr       0.00000000       0.00000000       2.48383838       0.00000000       0.00000000      -3.51195621
2
Properties=species:S:1:pos:R:3:forces:R:3 energy=-36.95641161706286 pbc="F F F"
Zr       0.00000000       0.00000000       0.00000000       0.00000000       0.00000000       2.66154885
Zr       0.00000000       0.00000000       2.54343434       0.00000000       0.00000000      -2.66154885
2
Properties=species:S:1:pos:R:3:forces:R:3 energy=-36.81440175551849 pbc="F F F"
Zr       0.00000000       0.00000000       0.00000000       0.00000000       0.00000000       2.16378880
Zr       0.00000000       0.00000000       2.60303030       0.00000000       0.00000000      -2.16378880
2
Properties=species:S:1:pos:R:3:forces:R:3 energy=-36.69184674229368 pbc="F F F"
Zr       0.00000000       0.00000000       0.00000000       0.00000000       0.00000000       1.99821568
Zr       0.00000000       0.00000000       2.66262626       0.00000000       0.00000000      -1.99821568
2
Properties=species:S:1:pos:R:3:forces:R:3 energy=-36.57154879878775 pbc="F F F"
Zr       0.00000000       0.00000000       0.00000000       0.00000000       0.00000000       2.06699896
Zr       0.00000000       0.00000000       2.72222222       0.00000000       0.00000000      -2.06699896
2
Properties=species:S:1:pos:R:3:forces:R:3 energy=-36.443539732013726 pbc="F F F"
Zr       0.00000000       0.00000000       0.00000000       0.00000000       0.00000000       2.23335624
Zr       0.00000000       0.00000000       2.78181818       0.00000000       0.00000000      -2.23335624
2
Properties=species:S:1:pos:R:3:forces:R:3 energy=-36.306105337301645 pbc="F F F"
Zr       0.00000000       0.00000000       0.00000000       0.00000000       0.00000000       2.36312056
Zr       0.00000000       0.00000000       2.84141414       0.00000000       0.00000000      -2.36312056
2
Properties=species:S:1:pos:R:3:forces:R:3 energy=-36.16449065196588 pbc="F F F"
Zr       0.00000000       0.00000000       0.00000000       0.00000000       0.00000000       2.36416340
Zr       0.00000000       0.00000000       2.90101010       0.00000000       0.00000000      -2.36416340
2
Properties=species:S:1:pos:R:3:forces:R:3 energy=-36.027203023586836 pbc="F F F"
Zr       0.00000000       0.00000000       0.00000000       0.00000000       0.00000000       2.22276568
Zr       0.00000000       0.00000000       2.96060606       0.00000000       0.00000000      -2.22276568
2
Properties=species:S:1:pos:R:3:forces:R:3 energy=-35.901120675948675 pbc="F F F"
Zr       0.00000000       0.00000000       0.00000000       0.00000000       0.00000000       2.00338507
Zr       0.00000000       0.00000000       3.02020202       0.00000000       0.00000000      -2.00338507
2
Properties=species:S:1:pos:R:3:forces:R:3 energy=-35.788056184741926 pbc="F F F"
Zr       0.00000000       0.00000000       0.00000000       0.00000000       0.00000000       1.80095053
Zr       0.00000000       0.00000000       3.07979798       0.00000000       0.00000000      -1.80095053
2
Properties=species:S:1:pos:R:3:forces:R:3 energy=-35.68477657617454 pbc="F F F"
Zr       0.00000000       0.00000000       0.00000000       0.00000000       0.00000000       1.68136501
Zr       0.00000000       0.00000000       3.13939394       0.00000000       0.00000000      -1.68136501
2
Properties=species:S:1:pos:R:3:forces:R:3 energy=-35.585801915590366 pbc="F F F"
Zr       0.00000000       0.00000000       0.00000000       0.00000000       0.00000000       1.65340853
Zr       0.00000000       0.00000000       3.19898990       0.00000000       0.00000000      -1.65340853
2
Properties=species:S:1:pos:R:3:forces:R:3 energy=-35.486554829287414 pbc="F F F"
Zr       0.00000000       0.00000000       0.00000000       0.00000000       0.00000000       1.68306994
Zr       0.00000000       0.00000000       3.25858586       0.00000000       0.00000000      -1.68306994
2
Properties=species:S:1:pos:R:3:forces:R:3 energy=-35.38491457529809 pbc="F F F"
Zr       0.00000000       0.00000000       0.00000000       0.00000000       0.00000000       1.72730982
Zr       0.00000000       0.00000000       3.31818182       0.00000000       0.00000000      -1.72730982
2
Properties=species:S:1:pos:R:3:forces:R:3 energy=-35.28099384076063 pbc="F F F"
Zr       0.00000000       0.00000000       0.00000000       0.00000000       0.00000000       1.75593638
Zr       0.00000000       0.00000000       3.37777778       0.00000000       0.00000000      -1.75593638
2
Properties=species:S:1:pos:R:3:forces:R:3 energy=-35.17628423006943 pbc="F F F"
Zr       0.00000000       0.00000000       0.00000000       0.00000000       0.00000000       1.75129104
Zr       0.00000000       0.00000000       3.43737374       0.00000000       0.00000000      -1.75129104
2
Properties=species:S:1:pos:R:3:forces:R:3 energy=-35.073163734673585 pbc="F F F"
Zr       0.00000000       0.00000000       0.00000000       0.00000000       0.00000000       1.70087397
Zr       0.00000000       0.00000000       3.49696970       0.00000000       0.00000000      -1.70087397
2
Properties=species:S:1:pos:R:3:forces:R:3 energy=-34.974607311965556 pbc="F F F"
Zr       0.00000000       0.00000000       0.00000000       0.00000000       0.00000000       1.59778035
Zr       0.00000000       0.00000000       3.55656566       0.00000000       0.00000000      -1.59778035
2
Properties=species:S:1:pos:R:3:forces:R:3 energy=-34.8836653205675 pbc="F F F"
Zr       0.00000000       0.00000000       0.00000000       0.00000000       0.00000000       1.44779789
Zr       0.00000000       0.00000000       3.61616162       0.00000000       0.00000000      -1.44779789
2
Properties=species:S:1:pos:R:3:forces:R:3 energy=-34.80254021862927 pbc="F F F"
Zr       0.00000000       0.00000000       0.00000000       0.00000000       0.00000000       1.27328348
Zr       0.00000000       0.00000000       3.67575758       0.00000000       0.00000000      -1.27328348
2
Properties=species:S:1:pos:R:3:forces:R:3 energy=-34.73173009047326 pbc="F F F"
Zr       0.00000000       0.00000000       0.00000000       0.00000000       0.00000000       1.10730135
Zr       0.00000000       0.00000000       3.73535354       0.00000000       0.00000000      -1.10730135
2
Properties=species:S:1:pos:R:3:forces:R:3 energy=-34.6697658144816 pbc="F F F"
Zr       0.00000000       0.00000000       0.00000000       0.00000000       0.00000000       0.98066002
Zr       0.00000000       0.00000000       3.79494949       0.00000000       0.00000000      -0.98066002
2
Properties=species:S:1:pos:R:3:forces:R:3 energy=-34.61371422296737 pbc="F F F"
Zr       0.00000000       0.00000000       0.00000000       0.00000000       0.00000000       0.91008282
Zr       0.00000000       0.00000000       3.85454545       0.00000000       0.00000000      -0.91008282
2
Properties=species:S:1:pos:R:3:forces:R:3 energy=-34.560197974557965 pbc="F F F"
Zr       0.00000000       0.00000000       0.00000000       0.00000000       0.00000000       0.89410561
Zr       0.00000000       0.00000000       3.91414141       0.00000000       0.00000000      -0.89410561
2
Properties=species:S:1:pos:R:3:forces:R:3 energy=-34.50636426491363 pbc="F F F"
Zr       0.00000000       0.00000000       0.00000000       0.00000000       0.00000000       0.91726059
Zr       0.00000000       0.00000000       3.97373737       0.00000000       0.00000000      -0.91726059
2
Properties=species:S:1:pos:R:3:forces:R:3 energy=-34.45051172321477 pbc="F F F"
Zr       0.00000000       0.00000000       0.00000000       0.00000000       0.00000000       0.95836926
Zr       0.00000000       0.00000000       4.03333333       0.00000000       0.00000000      -0.95836926
2
Properties=species:S:1:pos:R:3:forces:R:3 energy=-34.392166915183566 pbc="F F F"
Zr       0.00000000       0.00000000       0.00000000       0.00000000       0.00000000       0.99809289
Zr       0.00000000       0.00000000       4.09292929       0.00000000       0.00000000      -0.99809289
2
Properties=species:S:1:pos:R:3:forces:R:3 energy=-34.33184069347142 pbc="F F F"
Zr       0.00000000       0.00000000       0.00000000       0.00000000       0.00000000       1.02334034
Zr       0.00000000       0.00000000       4.15252525       0.00000000       0.00000000      -1.02334034
2
Properties=species:S:1:pos:R:3:forces:R:3 energy=-34.270596810582184 pbc="F F F"
Zr       0.00000000       0.00000000       0.00000000       0.00000000       0.00000000       1.02853489
Zr       0.00000000       0.00000000       4.21212121       0.00000000       0.00000000      -1.02853489
2
Properties=species:S:1:pos:R:3:forces:R:3 energy=-34.20962890246047 pbc="F F F"
Zr       0.00000000       0.00000000       0.00000000       0.00000000       0.00000000       1.01459312
Zr       0.00000000       0.00000000       4.27171717       0.00000000       0.00000000      -1.01459312
2
Properties=species:S:1:pos:R:3:forces:R:3 energy=-34.14994351382245 pbc="F F F"
Zr       0.00000000       0.00000000       0.00000000       0.00000000       0.00000000       0.98666680
Zr       0.00000000       0.00000000       4.33131313       0.00000000       0.00000000      -0.98666680
2
Properties=species:S:1:pos:R:3:forces:R:3 energy=-34.09217346942952 pbc="F F F"
Zr       0.00000000       0.00000000       0.00000000       0.00000000       0.00000000       0.95139045
Zr       0.00000000       0.00000000       4.39090909       0.00000000       0.00000000      -0.95139045
2
Properties=species:S:1:pos:R:3:forces:R:3 energy=-34.03657771569718 pbc="F F F"
Zr       0.00000000       0.00000000       0.00000000       0.00000000       0.00000000       0.91437531
Zr       0.00000000       0.00000000       4.45050505       0.00000000       0.00000000      -0.91437531
2
Properties=species:S:1:pos:R:3:forces:R:3 energy=-33.983163451196134 pbc="F F F"
Zr       0.00000000       0.00000000       0.00000000       0.00000000       0.00000000       0.87843341
Zr       0.00000000       0.00000000       4.51010101       0.00000000       0.00000000      -0.87843341
2
Properties=species:S:1:pos:R:3:forces:R:3 energy=-33.93186158688745 pbc="F F F"
Zr       0.00000000       0.00000000       0.00000000       0.00000000       0.00000000       0.84305805
Zr       0.00000000       0.00000000       4.56969697       0.00000000       0.00000000      -0.84305805
2
Properties=species:S:1:pos:R:3:forces:R:3 energy=-33.882721359039486 pbc="F F F"
Zr       0.00000000       0.00000000       0.00000000       0.00000000       0.00000000       0.80529046
Zr       0.00000000       0.00000000       4.62929293       0.00000000       0.00000000      -0.80529046
2
Properties=species:S:1:pos:R:3:forces:R:3 energy=-33.83599795639128 pbc="F F F"
Zr       0.00000000       0.00000000       0.00000000       0.00000000       0.00000000       0.76150322
Zr       0.00000000       0.00000000       4.68888889       0.00000000       0.00000000      -0.76150322
2
Properties=species:S:1:pos:R:3:forces:R:3 energy=-33.792125955071924 pbc="F F F"
Zr       0.00000000       0.00000000       0.00000000       0.00000000       0.00000000       0.70936209
Zr       0.00000000       0.00000000       4.74848485       0.00000000       0.00000000      -0.70936209
2
Properties=species:S:1:pos:R:3:forces:R:3 energy=-33.751608610016476 pbc="F F F"
Zr       0.00000000       0.00000000       0.00000000       0.00000000       0.00000000       0.64924389
Zr       0.00000000       0.00000000       4.80808081       0.00000000       0.00000000      -0.64924389
2
Properties=species:S:1:pos:R:3:forces:R:3 energy=-33.71483480176631 pbc="F F F"
Zr       0.00000000       0.00000000       0.00000000       0.00000000       0.00000000       0.58444846
Zr       0.00000000       0.00000000       4.86767677       0.00000000       0.00000000      -0.58444846
2
Properties=species:S:1:pos:R:3:forces:R:3 energy=-33.68193404154303 pbc="F F F"
Zr       0.00000000       0.00000000       0.00000000       0.00000000       0.00000000       0.52037644
Zr       0.00000000       0.00000000       4.92727273       0.00000000       0.00000000      -0.52037644
2
Properties=species:S:1:pos:R:3:forces:R:3 energy=-33.65267734297258 pbc="F F F"
Zr       0.00000000       0.00000000       0.00000000       0.00000000       0.00000000       0.46299204
Zr       0.00000000       0.00000000       4.98686869       0.00000000       0.00000000      -0.46299204
2
Properties=species:S:1:pos:R:3:forces:R:3 energy=-33.626519159996455 pbc="F F F"
Zr       0.00000000       0.00000000       0.00000000       0.00000000       0.00000000       0.41716641
Zr       0.00000000       0.00000000       5.04646465       0.00000000       0.00000000      -0.41716641
2
Properties=species:S:1:pos:R:3:forces:R:3 energy=-33.602673676065315 pbc="F F F"
Zr       0.00000000       0.00000000       0.00000000       0.00000000       0.00000000       0.38538647
Zr       0.00000000       0.00000000       5.10606061       0.00000000       0.00000000      -0.38538647
2
Properties=species:S:1:pos:R:3:forces:R:3 energy=-33.58031320482675 pbc="F F F"
Zr       0.00000000       0.00000000       0.00000000       0.00000000       0.00000000       0.36701092
Zr       0.00000000       0.00000000       5.16565657       0.00000000       0.00000000      -0.36701092
2
Properties=species:S:1:pos:R:3:forces:R:3 energy=-33.55873602571756 pbc="F F F"
Zr       0.00000000       0.00000000       0.00000000       0.00000000       0.00000000       0.35822180
Zr       0.00000000       0.00000000       5.22525253       0.00000000       0.00000000      -0.35822180
2
Properties=species:S:1:pos:R:3:forces:R:3 energy=-33.53754948309689 pbc="F F F"
Zr       0.00000000       0.00000000       0.00000000       0.00000000       0.00000000       0.35280737
Zr       0.00000000       0.00000000       5.28484848       0.00000000       0.00000000      -0.35280737
2
Properties=species:S:1:pos:R:3:forces:R:3 energy=-33.516742486085114 pbc="F F F"
Zr       0.00000000       0.00000000       0.00000000       0.00000000       0.00000000       0.34462258
Zr       0.00000000       0.00000000       5.34444444       0.00000000       0.00000000      -0.34462258
2
Properties=species:S:1:pos:R:3:forces:R:3 energy=-33.496563430331776 pbc="F F F"
Zr       0.00000000       0.00000000       0.00000000       0.00000000       0.00000000       0.33195883
Zr       0.00000000       0.00000000       5.40404040       0.00000000       0.00000000      -0.33195883
2
Properties=species:S:1:pos:R:3:forces:R:3 energy=-33.477207389671996 pbc="F F F"
Zr       0.00000000       0.00000000       0.00000000       0.00000000       0.00000000       0.31713018
Zr       0.00000000       0.00000000       5.46363636       0.00000000       0.00000000      -0.31713018
2
Properties=species:S:1:pos:R:3:forces:R:3 energy=-33.45888097706733 pbc="F F F"
Zr       0.00000000       0.00000000       0.00000000       0.00000000       0.00000000       0.29654738
Zr       0.00000000       0.00000000       5.52323232       0.00000000       0.00000000      -0.29654738
2
Properties=species:S:1:pos:R:3:forces:R:3 energy=-33.442145659440186 pbc="F F F"
Zr       0.00000000       0.00000000       0.00000000       0.00000000       0.00000000       0.26240614
Zr       0.00000000       0.00000000       5.58282828       0.00000000       0.00000000      -0.26240614
2
Properties=species:S:1:pos:R:3:forces:R:3 energy=-33.42785289673285 pbc="F F F"
Zr       0.00000000       0.00000000       0.00000000       0.00000000       0.00000000       0.21615842
Zr       0.00000000       0.00000000       5.64242424       0.00000000       0.00000000      -0.21615842
2
Properties=species:S:1:pos:R:3:forces:R:3 energy=-33.41636213213593 pbc="F F F"
Zr       0.00000000       0.00000000       0.00000000       0.00000000       0.00000000       0.17064711
Zr       0.00000000       0.00000000       5.70202020       0.00000000       0.00000000      -0.17064711
2
Properties=species:S:1:pos:R:3:forces:R:3 energy=-33.40726613388517 pbc="F F F"
Zr       0.00000000       0.00000000       0.00000000       0.00000000       0.00000000       0.13709773
Zr       0.00000000       0.00000000       5.76161616       0.00000000       0.00000000      -0.13709773
2
Properties=species:S:1:pos:R:3:forces:R:3 energy=-33.39992120491929 pbc="F F F"
Zr       0.00000000       0.00000000       0.00000000       0.00000000       0.00000000       0.10804009
Zr       0.00000000       0.00000000       5.82121212       0.00000000       0.00000000      -0.10804009
2
Properties=species:S:1:pos:R:3:forces:R:3 energy=-33.39467554549378 pbc="F F F"
Zr       0.00000000       0.00000000       0.00000000       0.00000000       0.00000000       0.06654373
Zr       0.00000000       0.00000000       5.88080808       0.00000000       0.00000000      -0.06654373
2
Properties=species:S:1:pos:R:3:forces:R:3 energy=-33.39198419273017 pbc="F F F"
Zr       0.00000000       0.00000000       0.00000000       0.00000000       0.00000000       0.02508968
Zr       0.00000000       0.00000000       5.94040404       0.00000000       0.00000000      -0.02508968
2
Properties=species:S:1:pos:R:3:forces:R:3 energy=-33.39116545148214 pbc="F F F"
Zr       0.00000000       0.00000000       0.00000000       0.00000000       0.00000000       0.00819832
Zr       0.00000000       0.00000000       6.00000000       0.00000000       0.00000000      -0.00819832
