2
Properties=species:S:1:pos:R:3:forces:R:3 energy=-159655.13986353955 pbc="F F F"
Ac       0.00000000       0.00000000       0.00000000       0.00000000       0.00000000 -329419.53125000
Ac       0.00000000       0.00000000       0.18000000       0.00000000       0.00000000  329419.53125000
2
Properties=species:S:1:pos:R:3:forces:R:3 energy=-170320.43673853955 pbc="F F F"
Ac       0.00000000       0.00000000       0.00000000       0.00000000       0.00000000  -80555.21093750
Ac       0.00000000       0.00000000       0.23878788       0.00000000       0.00000000   80555.21093750
2
Properties=species:S:1:pos:R:3:forces:R:3 energy=-171763.53048853955 pbc="F F F"
Ac       0.00000000       0.00000000       0.00000000       0.00000000       0.00000000   22106.35351562
Ac       0.00000000       0.00000000       0.29757576       0.00000000       0.00000000  -22106.35351562
2
Properties=species:S:1:pos:R:3:forces:R:3 energy=-168142.24923853955 pbc="F F F"
Ac       0.00000000       0.00000000       0.00000000       0.00000000       0.00000000  100872.98437500
Ac       0.00000000       0.00000000       0.35636364       0.00000000       0.00000000 -100872.98437500
2
Properties=species:S:1:pos:R:3:forces:R:3 energy=-159757.74923853955 pbc="F F F"
Ac       0.00000000       0.00000000       0.00000000       0.00000000       0.00000000  186414.04687500
Ac       0.00000000       0.00000000       0.41515152       0.00000000       0.00000000 -186414.04687500
2
Properties=species:S:1:pos:R:3:forces:R:3 energy=-146000.42111353955 pbc="F F F"
Ac       0.00000000       0.00000000       0.00000000       0.00000000       0.00000000  282927.37500000
Ac       0.00000000       0.00000000       0.47393939       0.00000000       0.00000000 -282927.37500000
2
Properties=species:S:1:pos:R:3:forces:R:3 energy=-126484.45236353953 pbc="F F F"
Ac       0.00000000       0.00000000       0.00000000       0.00000000       0.00000000  379412.34375000
Ac       0.00000000       0.00000000       0.53272727       0.00000000       0.00000000 -379412.34375000
2
Properties=species:S:1:pos:R:3:forces:R:3 energy=-101835.24142603637 pbc="F F F"
Ac       0.00000000       0.00000000       0.00000000       0.00000000       0.00000000  453014.56250000
Ac       0.00000000       0.00000000       0.59151515       0.00000000       0.00000000 -453014.56250000
2
Properties=species:S:1:pos:R:3:forces:R:3 energy=-74221.3820510332 pbc="F F F"
Ac       0.00000000       0.00000000       0.00000000       0.00000000       0.00000000  475847.81250000
Ac       0.00000000       0.00000000       0.65030303       0.00000000       0.00000000 -475847.81250000
2
Properties=species:S:1:pos:R:3:forces:R:3 energy=-46332.91720727686 pbc="F F F"
Ac       0.00000000       0.00000000       0.00000000       0.00000000       0.00000000  449368.12500000
Ac       0.00000000       0.00000000       0.70909091       0.00000000       0.00000000 -449368.12500000
2
Properties=species:S:1:pos:R:3:forces:R:3 energy=-23317.12423852053 pbc="F F F"
Ac       0.00000000       0.00000000       0.00000000       0.00000000       0.00000000  325162.75000000
Ac       0.00000000       0.00000000       0.76787879       0.00000000       0.00000000 -325162.75000000
2
Properties=species:S:1:pos:R:3:forces:R:3 energy=-8568.020722886025 pbc="F F F"
Ac       0.00000000       0.00000000       0.00000000       0.00000000       0.00000000  177670.15625000
Ac       0.00000000       0.00000000       0.82666667       0.00000000       0.00000000 -177670.15625000
2
Properties=species:S:1:pos:R:3:forces:R:3 energy=-1878.4522414248743 pbc="F F F"
Ac       0.00000000       0.00000000       0.00000000       0.00000000       0.00000000   58687.10546875
Ac       0.00000000       0.00000000       0.88545455       0.00000000       0.00000000  -58687.10546875
2
Properties=species:S:1:pos:R:3:forces:R:3 energy=-160.0597700892229 pbc="F F F"
Ac       0.00000000       0.00000000       0.00000000       0.00000000       0.00000000   21079.33984375
Ac       0.00000000       0.00000000       0.94424242       0.00000000       0.00000000  -21079.33984375
2
Properties=species:S:1:pos:R:3:forces:R:3 energy=94.20052962190469 pbc="F F F"
Ac       0.00000000       0.00000000       0.00000000       0.00000000       0.00000000   -2458.34082031
Ac       0.00000000       0.00000000       1.00303030       0.00000000       0.00000000    2458.34082031
2
Properties=species:S:1:pos:R:3:forces:R:3 energy=-167.658494387933 pbc="F F F"
Ac       0.00000000       0.00000000       0.00000000       0.00000000       0.00000000    1911.31262207
Ac       0.00000000       0.00000000       1.06181818       0.00000000       0.00000000   -1911.31262207
2
Properties=species:S:1:pos:R:3:forces:R:3 energy=-46.332139356779095 pbc="F F F"
Ac       0.00000000       0.00000000       0.00000000       0.00000000       0.00000000    1739.29504395
Ac       0.00000000       0.00000000       1.12060606       0.00000000       0.00000000   -1739.29504395
2
Properties=species:S:1:pos:R:3:forces:R:3 energy=-48.79600647458701 pbc="F F F"
Ac       0.00000000       0.00000000       0.00000000       0.00000000       0.00000000    -273.13351440
Ac       0.00000000       0.00000000       1.17939394       0.00000000       0.00000000     273.13351440
2
Properties=species:S:1:pos:R:3:forces:R:3 energy=-61.7605297044855 pbc="F F F"
Ac       0.00000000       0.00000000       0.00000000       0.00000000       0.00000000    -175.76937866
Ac       0.00000000       0.00000000       1.23818182       0.00000000       0.00000000     175.76937866
2
Properties=species:S:1:pos:R:3:forces:R:3 energy=-70.4592295447836 pbc="F F F"
Ac       0.00000000       0.00000000       0.00000000       0.00000000       0.00000000    -131.95288086
Ac       0.00000000       0.00000000       1.29696970       0.00000000       0.00000000     131.95288086
2
Properties=species:S:1:pos:R:3:forces:R:3 energy=-77.63145535754786 pbc="F F F"
Ac       0.00000000       0.00000000       0.00000000       0.00000000       0.00000000    -109.74704742
Ac       0.00000000       0.00000000       1.35575758       0.00000000       0.00000000     109.74704742
2
Properties=species:S:1:pos:R:3:forces:R:3 energy=-83.18370127389981 pbc="F F F"
Ac       0.00000000       0.00000000       0.00000000       0.00000000       0.00000000     -79.55044556
Ac       0.00000000       0.00000000       1.41454545       0.00000000       0.00000000      79.55044556
2
Properties=species:S:1:pos:R:3:forces:R:3 energy=-87.60275318567918 pbc="F F F"
Ac       0.00000000       0.00000000       0.00000000       0.00000000       0.00000000     -82.48767090
Ac       0.00000000       0.00000000       1.47333333       0.00000000       0.00000000      82.48767090
2
Properties=species:S:1:pos:R:3:forces:R:3 energy=-93.54599785366415 pbc="F F F"
Ac       0.00000000       0.00000000       0.00000000       0.00000000       0.00000000    -112.55707550
Ac       0.00000000       0.00000000       1.53212121       0.00000000       0.00000000     112.55707550
2
Properties=species:S:1:pos:R:3:forces:R:3 energy=-99.93829337111644 pbc="F F F"
Ac       0.00000000       0.00000000       0.00000000       0.00000000       0.00000000    -101.77862549
Ac       0.00000000       0.00000000       1.59090909       0.00000000       0.00000000     101.77862549
2
Properties=species:S:1:pos:R:3:forces:R:3 energy=-105.45644331423199 pbc="F F F"
Ac       0.00000000       0.00000000       0.00000000       0.00000000       0.00000000     -86.55511475
Ac       0.00000000       0.00000000       1.64969697       0.00000000       0.00000000      86.55511475
2
Properties=species:S:1:pos:R:3:forces:R:3 energy=-110.20345975530041 pbc="F F F"
Ac       0.00000000       0.00000000       0.00000000       0.00000000       0.00000000     -75.63216400
Ac       0.00000000       0.00000000       1.70848485       0.00000000       0.00000000      75.63216400
2
Properties=species:S:1:pos:R:3:forces:R:3 energy=-114.39557498145513 pbc="F F F"
Ac       0.00000000       0.00000000       0.00000000       0.00000000       0.00000000     -66.96751404
Ac       0.00000000       0.00000000       1.76727273       0.00000000       0.00000000      66.96751404
2
Properties=species:S:1:pos:R:3:forces:R:3 energy=-118.02766203006765 pbc="F F F"
Ac       0.00000000       0.00000000       0.00000000       0.00000000       0.00000000     -55.94317245
Ac       0.00000000       0.00000000       1.82606061       0.00000000       0.00000000      55.94317245
2
Properties=species:S:1:pos:R:3:forces:R:3 energy=-120.90960399980683 pbc="F F F"
Ac       0.00000000       0.00000000       0.00000000       0.00000000       0.00000000     -41.85854340
Ac       0.00000000       0.00000000       1.88484848       0.00000000       0.00000000      41.85854340
2
Properties=species:S:1:pos:R:3:forces:R:3 energy=-122.96456524250937 pbc="F F F"
Ac       0.00000000       0.00000000       0.00000000       0.00000000       0.00000000     -28.49328232
Ac       0.00000000       0.00000000       1.94363636       0.00000000       0.00000000      28.49328232
2
Properties=species:S:1:pos:R:3:forces:R:3 energy=-124.32964595889486 pbc="F F F"
Ac       0.00000000       0.00000000       0.00000000       0.00000000       0.00000000     -18.60149193
Ac       0.00000000       0.00000000       2.00242424       0.00000000       0.00000000      18.60149193
2
Properties=species:S:1:pos:R:3:forces:R:3 energy=-125.22493890022605 pbc="F F F"
Ac       0.00000000       0.00000000       0.00000000       0.00000000       0.00000000     -12.41878605
Ac       0.00000000       0.00000000       2.06121212       0.00000000       0.00000000      12.41878605
2
Properties=species:S:1:pos:R:3:forces:R:3 energy=-125.84571076796102 pbc="F F F"
Ac       0.00000000       0.00000000       0.00000000       0.00000000       0.00000000      -9.08266640
Ac       0.00000000       0.00000000       2.12000000       0.00000000       0.00000000       9.08266640
2
Properties=species:S:1:pos:R:3:forces:R:3 energy=-126.32707811707343 pbc="F F F"
Ac       0.00000000       0.00000000       0.00000000       0.00000000       0.00000000      -7.50331688
Ac       0.00000000       0.00000000       2.17878788       0.00000000       0.00000000       7.50331688
2
Properties=species:S:1:pos:R:3:forces:R:3 energy=-126.74584602746334 pbc="F F F"
Ac       0.00000000       0.00000000       0.00000000       0.00000000       0.00000000      -6.85671902
Ac       0.00000000       0.00000000       2.23757576       0.00000000       0.00000000       6.85671902
2
Properties=species:S:1:pos:R:3:forces:R:3 energy=-127.1443347220852 pbc="F F F"
Ac       0.00000000       0.00000000       0.00000000       0.00000000       0.00000000      -6.78198195
Ac       0.00000000       0.00000000       2.29636364       0.00000000       0.00000000       6.78198195
2
Properties=species:S:1:pos:R:3:forces:R:3 energy=-127.55146720392875 pbc="F F F"
Ac       0.00000000       0.00000000       0.00000000       0.00000000       0.00000000      -7.12403870
Ac       0.00000000       0.00000000       2.35515152       0.00000000       0.00000000       7.12403870
2
Properties=species:S:1:pos:R:3:forces:R:3 energy=-127.98613381900734 pbc="F F F"
Ac       0.00000000       0.00000000       0.00000000       0.00000000       0.00000000      -7.67794228
Ac       0.00000000       0.00000000       2.41393939       0.00000000       0.00000000       7.67794228
2
Properties=species:S:1:pos:R:3:forces:R:3 energy=-128.4534385879128 pbc="F F F"
Ac       0.00000000       0.00000000       0.00000000       0.00000000       0.00000000      -8.19393730
Ac       0.00000000       0.00000000       2.47272727       0.00000000       0.00000000       8.19393730
2
Properties=species:S:1:pos:R:3:forces:R:3 energy=-128.94461529831497 pbc="F F F"
Ac       0.00000000       0.00000000       0.00000000       0.00000000       0.00000000      -8.46128654
Ac       0.00000000       0.00000000       2.53151515       0.00000000       0.00000000       8.46128654
2
Properties=species:S:1:pos:R:3:forces:R:3 energy=-129.44094899474345 pbc="F F F"
Ac       0.00000000       0.00000000       0.00000000       0.00000000       0.00000000      -8.35834599
Ac       0.00000000       0.00000000       2.59030303       0.00000000       0.00000000       8.35834599
2
Properties=species:S:1:pos:R:3:forces:R:3 energy=-129.91991765068903 pbc="F F F"
Ac       0.00000000       0.00000000       0.00000000       0.00000000       0.00000000      -7.87981272
Ac       0.00000000       0.00000000       2.64909091       0.00000000       0.00000000       7.87981272
2
Properties=species:S:1:pos:R:3:forces:R:3 energy=-130.36198996229874 pbc="F F F"
Ac       0.00000000       0.00000000       0.00000000       0.00000000       0.00000000      -7.12545300
Ac       0.00000000       0.00000000       2.70787879       0.00000000       0.00000000       7.12545300
2
Properties=species:S:1:pos:R:3:forces:R:3 energy=-130.75509617990681 pbc="F F F"
Ac       0.00000000       0.00000000       0.00000000       0.00000000       0.00000000      -6.23747683
Ac       0.00000000       0.00000000       2.76666667       0.00000000       0.00000000       6.23747683
2
Properties=species:S:1:pos:R:3:forces:R:3 energy=-131.09502479220083 pbc="F F F"
Ac       0.00000000       0.00000000       0.00000000       0.00000000       0.00000000      -5.33027935
Ac       0.00000000       0.00000000       2.82545455       0.00000000       0.00000000       5.33027935
2
Properties=species:S:1:pos:R:3:forces:R:3 energy=-131.3826302153405 pbc="F F F"
Ac       0.00000000       0.00000000       0.00000000       0.00000000       0.00000000      -4.46304512
Ac       0.00000000       0.00000000       2.88424242       0.00000000       0.00000000       4.46304512
2
Properties=species:S:1:pos:R:3:forces:R:3 energy=-131.62094891033544 pbc="F F F"
Ac       0.00000000       0.00000000       0.00000000       0.00000000       0.00000000      -3.65552783
Ac       0.00000000       0.00000000       2.94303030       0.00000000       0.00000000       3.65552783
2
Properties=species:S:1:pos:R:3:forces:R:3 energy=-131.81371921714953 pbc="F F F"
Ac       0.00000000       0.00000000       0.00000000       0.00000000       0.00000000      -2.91370463
Ac       0.00000000       0.00000000       3.00181818       0.00000000       0.00000000       2.91370463
2
Properties=species:S:1:pos:R:3:forces:R:3 energy=-131.96490826888348 pbc="F F F"
Ac       0.00000000       0.00000000       0.00000000       0.00000000       0.00000000      -2.24199986
Ac       0.00000000       0.00000000       3.06060606       0.00000000       0.00000000       2.24199986
2
Properties=species:S:1:pos:R:3:forces:R:3 energy=-132.07874269625472 pbc="F F F"
Ac       0.00000000       0.00000000       0.00000000       0.00000000       0.00000000      -1.64270771
Ac       0.00000000       0.00000000       3.11939394       0.00000000       0.00000000       1.64270771
2
Properties=species:S:1:pos:R:3:forces:R:3 energy=-132.15941853320683 pbc="F F F"
Ac       0.00000000       0.00000000       0.00000000       0.00000000       0.00000000      -1.11339390
Ac       0.00000000       0.00000000       3.17818182       0.00000000       0.00000000       1.11339390
2
Properties=species:S:1:pos:R:3:forces:R:3 energy=-132.2109182793357 pbc="F F F"
Ac       0.00000000       0.00000000       0.00000000       0.00000000       0.00000000      -0.64875841
Ac       0.00000000       0.00000000       3.23696970       0.00000000       0.00000000       0.64875841
2
Properties=species:S:1:pos:R:3:forces:R:3 energy=-132.23690393631028 pbc="F F F"
Ac       0.00000000       0.00000000       0.00000000       0.00000000       0.00000000      -0.24566141
Ac       0.00000000       0.00000000       3.29575758       0.00000000       0.00000000       0.24566141
2
Properties=species:S:1:pos:R:3:forces:R:3 energy=-132.24105266955405 pbc="F F F"
Ac       0.00000000       0.00000000       0.00000000       0.00000000       0.00000000       0.09326145
Ac       0.00000000       0.00000000       3.35454545       0.00000000       0.00000000      -0.09326145
2
Properties=species:S:1:pos:R:3:forces:R:3 energy=-132.22733174521636 pbc="F F F"
Ac       0.00000000       0.00000000       0.00000000       0.00000000       0.00000000       0.36088571
Ac       0.00000000       0.00000000       3.41333333       0.00000000       0.00000000      -0.36088571
2
Properties=species:S:1:pos:R:3:forces:R:3 energy=-132.20013549180658 pbc="F F F"
Ac       0.00000000       0.00000000       0.00000000       0.00000000       0.00000000       0.55149114
Ac       0.00000000       0.00000000       3.47212121       0.00000000       0.00000000      -0.55149114
2
Properties=species:S:1:pos:R:3:forces:R:3 energy=-132.1639651317209 pbc="F F F"
Ac       0.00000000       0.00000000       0.00000000       0.00000000       0.00000000       0.66763425
Ac       0.00000000       0.00000000       3.53090909       0.00000000       0.00000000      -0.66763425
2
Properties=species:S:1:pos:R:3:forces:R:3 energy=-132.1228335680916 pbc="F F F"
Ac       0.00000000       0.00000000       0.00000000       0.00000000       0.00000000       0.72332615
Ac       0.00000000       0.00000000       3.58969697       0.00000000       0.00000000      -0.72332615
2
Properties=species:S:1:pos:R:3:forces:R:3 energy=-132.0796550839099 pbc="F F F"
Ac       0.00000000       0.00000000       0.00000000       0.00000000       0.00000000       0.74098027
Ac       0.00000000       0.00000000       3.64848485       0.00000000       0.00000000      -0.74098027
2
Properties=species:S:1:pos:R:3:forces:R:3 energy=-132.0359858919264 pbc="F F F"
Ac       0.00000000       0.00000000       0.00000000       0.00000000       0.00000000       0.74411529
Ac       0.00000000       0.00000000       3.70727273       0.00000000       0.00000000      -0.74411529
2
Properties=species:S:1:pos:R:3:forces:R:3 energy=-131.9921004666106 pbc="F F F"
Ac       0.00000000       0.00000000       0.00000000       0.00000000       0.00000000       0.75031817
Ac       0.00000000       0.00000000       3.76606061       0.00000000       0.00000000      -0.75031817
2
Properties=species:S:1:pos:R:3:forces:R:3 energy=-131.9475408352143 pbc="F F F"
Ac       0.00000000       0.00000000       0.00000000       0.00000000       0.00000000       0.76771384
Ac       0.00000000       0.00000000       3.82484848       0.00000000       0.00000000      -0.76771384
2
Properties=species:S:1:pos:R:3:forces:R:3 energy=-131.9016354494599 pbc="F F F"
Ac       0.00000000       0.00000000       0.00000000       0.00000000       0.00000000       0.79523200
Ac       0.00000000       0.00000000       3.88363636       0.00000000       0.00000000      -0.79523200
2
Properties=species:S:1:pos:R:3:forces:R:3 energy=-131.85398738759454 pbc="F F F"
Ac       0.00000000       0.00000000       0.00000000       0.00000000       0.00000000       0.82564050
Ac       0.00000000       0.00000000       3.94242424       0.00000000       0.00000000      -0.82564050
2
Properties=species:S:1:pos:R:3:forces:R:3 energy=-131.8046879204165 pbc="F F F"
Ac       0.00000000       0.00000000       0.00000000       0.00000000       0.00000000       0.85008311
Ac       0.00000000       0.00000000       4.00121212       0.00000000       0.00000000      -0.85008311
2
Properties=species:S:1:pos:R:3:forces:R:3 energy=-131.75427091864142 pbc="F F F"
Ac       0.00000000       0.00000000       0.00000000       0.00000000       0.00000000       0.86239886
Ac       0.00000000       0.00000000       4.06000000       0.00000000       0.00000000      -0.86239886
2
Properties=species:S:1:pos:R:3:forces:R:3 energy=-131.70354487950988 pbc="F F F"
Ac       0.00000000       0.00000000       0.00000000       0.00000000       0.00000000       0.86127222
Ac       0.00000000       0.00000000       4.11878788       0.00000000       0.00000000      -0.86127222
2
Properties=species:S:1:pos:R:3:forces:R:3 energy=-131.65322671268208 pbc="F F F"
Ac       0.00000000       0.00000000       0.00000000       0.00000000       0.00000000       0.84955871
Ac       0.00000000       0.00000000       4.17757576       0.00000000       0.00000000      -0.84955871
2
Properties=species:S:1:pos:R:3:forces:R:3 energy=-131.60377391890063 pbc="F F F"
Ac       0.00000000       0.00000000       0.00000000       0.00000000       0.00000000       0.83214748
Ac       0.00000000       0.00000000       4.23636364       0.00000000       0.00000000      -0.83214748
2
Properties=species:S:1:pos:R:3:forces:R:3 energy=-131.5553846438436 pbc="F F F"
Ac       0.00000000       0.00000000       0.00000000       0.00000000       0.00000000       0.81414664
Ac       0.00000000       0.00000000       4.29515152       0.00000000       0.00000000      -0.81414664
2
Properties=species:S:1:pos:R:3:forces:R:3 energy=-131.507967043337 pbc="F F F"
Ac       0.00000000       0.00000000       0.00000000       0.00000000       0.00000000       0.80004233
Ac       0.00000000       0.00000000       4.35393939       0.00000000       0.00000000      -0.80004233
2
Properties=species:S:1:pos:R:3:forces:R:3 energy=-131.46118515475658 pbc="F F F"
Ac       0.00000000       0.00000000       0.00000000       0.00000000       0.00000000       0.79335392
Ac       0.00000000       0.00000000       4.41272727       0.00000000       0.00000000      -0.79335392
2
Properties=species:S:1:pos:R:3:forces:R:3 energy=-131.4145046163742 pbc="F F F"
Ac       0.00000000       0.00000000       0.00000000       0.00000000       0.00000000       0.79630631
Ac       0.00000000       0.00000000       4.47151515       0.00000000       0.00000000      -0.79630631
2
Properties=species:S:1:pos:R:3:forces:R:3 energy=-131.3673453217728 pbc="F F F"
Ac       0.00000000       0.00000000       0.00000000       0.00000000       0.00000000       0.80946237
Ac       0.00000000       0.00000000       4.53030303       0.00000000       0.00000000      -0.80946237
2
Properties=species:S:1:pos:R:3:forces:R:3 energy=-131.3191576377639 pbc="F F F"
Ac       0.00000000       0.00000000       0.00000000       0.00000000       0.00000000       0.83143073
Ac       0.00000000       0.00000000       4.58909091       0.00000000       0.00000000      -0.83143073
2
Properties=species:S:1:pos:R:3:forces:R:3 energy=-131.26948350290039 pbc="F F F"
Ac       0.00000000       0.00000000       0.00000000       0.00000000       0.00000000       0.85897666
Ac       0.00000000       0.00000000       4.64787879       0.00000000       0.00000000      -0.85897666
2
Properties=species:S:1:pos:R:3:forces:R:3 energy=-131.21813950126688 pbc="F F F"
Ac       0.00000000       0.00000000       0.00000000       0.00000000       0.00000000       0.88763994
Ac       0.00000000       0.00000000       4.70666667       0.00000000       0.00000000      -0.88763994
2
Properties=species:S:1:pos:R:3:forces:R:3 energy=-131.16518634806962 pbc="F F F"
Ac       0.00000000       0.00000000       0.00000000       0.00000000       0.00000000       0.91289634
Ac       0.00000000       0.00000000       4.76545455       0.00000000       0.00000000      -0.91289634
2
Properties=species:S:1:pos:R:3:forces:R:3 energy=-131.11094416426454 pbc="F F F"
Ac       0.00000000       0.00000000       0.00000000       0.00000000       0.00000000       0.93147475
Ac       0.00000000       0.00000000       4.82424242       0.00000000       0.00000000      -0.93147475
2
Properties=species:S:1:pos:R:3:forces:R:3 energy=-131.0558246235419 pbc="F F F"
Ac       0.00000000       0.00000000       0.00000000       0.00000000       0.00000000       0.94251889
Ac       0.00000000       0.00000000       4.88303030       0.00000000       0.00000000      -0.94251889
2
Properties=species:S:1:pos:R:3:forces:R:3 energy=-131.00022412496384 pbc="F F F"
Ac       0.00000000       0.00000000       0.00000000       0.00000000       0.00000000       0.94796079
Ac       0.00000000       0.00000000       4.94181818       0.00000000       0.00000000      -0.94796079
2
Properties=species:S:1:pos:R:3:forces:R:3 energy=-130.94438650187664 pbc="F F F"
Ac       0.00000000       0.00000000       0.00000000       0.00000000       0.00000000       0.95175058
Ac       0.00000000       0.00000000       5.00060606       0.00000000       0.00000000      -0.95175058
2
Properties=species:S:1:pos:R:3:forces:R:3 energy=-130.88828092625556 pbc="F F F"
Ac       0.00000000       0.00000000       0.00000000       0.00000000       0.00000000       0.95804036
Ac       0.00000000       0.00000000       5.05939394       0.00000000       0.00000000      -0.95804036
2
Properties=species:S:1:pos:R:3:forces:R:3 energy=-130.83166294386123 pbc="F F F"
Ac       0.00000000       0.00000000       0.00000000       0.00000000       0.00000000       0.96852005
Ac       0.00000000       0.00000000       5.11818182       0.00000000       0.00000000      -0.96852005
2
Properties=species:S:1:pos:R:3:forces:R:3 energy=-130.77439493732027 pbc="F F F"
Ac       0.00000000       0.00000000       0.00000000       0.00000000       0.00000000       0.97957307
Ac       0.00000000       0.00000000       5.17696970       0.00000000       0.00000000      -0.97957307
2
Properties=species:S:1:pos:R:3:forces:R:3 energy=-130.71670549702895 pbc="F F F"
Ac       0.00000000       0.00000000       0.00000000       0.00000000       0.00000000       0.97989631
Ac       0.00000000       0.00000000       5.23575758       0.00000000       0.00000000      -0.97989631
2
Properties=species:S:1:pos:R:3:forces:R:3 energy=-130.65972350411306 pbc="F F F"
Ac       0.00000000       0.00000000       0.00000000       0.00000000       0.00000000       0.95245308
Ac       0.00000000       0.00000000       5.29454545       0.00000000       0.00000000      -0.95245308
2
Properties=species:S:1:pos:R:3:forces:R:3 energy=-130.60540182381118 pbc="F F F"
Ac       0.00000000       0.00000000       0.00000000       0.00000000       0.00000000       0.89121580
Ac       0.00000000       0.00000000       5.35333333       0.00000000       0.00000000      -0.89121580
2
Properties=species:S:1:pos:R:3:forces:R:3 energy=-130.55491514529442 pbc="F F F"
Ac       0.00000000       0.00000000       0.00000000       0.00000000       0.00000000       0.83262223
Ac       0.00000000       0.00000000       5.41212121       0.00000000       0.00000000      -0.83262223
2
Properties=species:S:1:pos:R:3:forces:R:3 energy=-130.5063253901078 pbc="F F F"
Ac       0.00000000       0.00000000       0.00000000       0.00000000       0.00000000       0.83052009
Ac       0.00000000       0.00000000       5.47090909       0.00000000       0.00000000      -0.83052009
2
Properties=species:S:1:pos:R:3:forces:R:3 energy=-130.45697733571728 pbc="F F F"
Ac       0.00000000       0.00000000       0.00000000       0.00000000       0.00000000       0.84076536
Ac       0.00000000       0.00000000       5.52969697       0.00000000       0.00000000      -0.84076536
2
Properties=species:S:1:pos:R:3:forces:R:3 energy=-130.40912911817733 pbc="F F F"
Ac       0.00000000       0.00000000       0.00000000       0.00000000       0.00000000       0.77236170
Ac       0.00000000       0.00000000       5.58848485       0.00000000       0.00000000      -0.77236170
2
Properties=species:S:1:pos:R:3:forces:R:3 energy=-130.36703780975574 pbc="F F F"
Ac       0.00000000       0.00000000       0.00000000       0.00000000       0.00000000       0.66279179
Ac       0.00000000       0.00000000       5.64727273       0.00000000       0.00000000      -0.66279179
2
Properties=species:S:1:pos:R:3:forces:R:3 energy=-130.32948261546062 pbc="F F F"
Ac       0.00000000       0.00000000       0.00000000       0.00000000       0.00000000       0.63771111
Ac       0.00000000       0.00000000       5.70606061       0.00000000       0.00000000      -0.63771111
2
Properties=species:S:1:pos:R:3:forces:R:3 energy=-130.2897953763635 pbc="F F F"
Ac       0.00000000       0.00000000       0.00000000       0.00000000       0.00000000       0.71404105
Ac       0.00000000       0.00000000       5.76484848       0.00000000       0.00000000      -0.71404105
2
Properties=species:S:1:pos:R:3:forces:R:3 energy=-130.24774719795712 pbc="F F F"
Ac       0.00000000       0.00000000       0.00000000       0.00000000       0.00000000       0.68084335
Ac       0.00000000       0.00000000       5.82363636       0.00000000       0.00000000      -0.68084335
2
Properties=species:S:1:pos:R:3:forces:R:3 energy=-130.21449227405316 pbc="F F F"
Ac       0.00000000       0.00000000       0.00000000       0.00000000       0.00000000       0.42504966
Ac       0.00000000       0.00000000       5.88242424       0.00000000       0.00000000      -0.42504966
2
Properties=species:S:1:pos:R:3:forces:R:3 energy=-130.19857559780257 pbc="F F F"
Ac       0.00000000       0.00000000       0.00000000       0.00000000       0.00000000       0.12799464
Ac       0.00000000       0.00000000       5.94121212       0.00000000       0.00000000      -0.12799464
2
Properties=species:S:1:pos:R:3:forces:R:3 energy=-130.19584689737368 pbc="F F F"
Ac       0.00000000       0.00000000       0.00000000       0.00000000       0.00000000       0.00549774
Ac       0.00000000       0.00000000       6.00000000       0.00000000       0.00000000      -0.00549774
