2
Properties=species:S:1:pos:R:3:forces:R:3 energy=7821.381475111089 pbc="F F F"
Ag       0.00000000       0.00000000       0.00000000       0.00000000       0.00000000 -131479.17187500
Ag       0.00000000       0.00000000       0.18000000       0.00000000       0.00000000  131479.17187500
2
Properties=species:S:1:pos:R:3:forces:R:3 energy=3141.332158704839 pbc="F F F"
Ag       0.00000000       0.00000000       0.00000000       0.00000000       0.00000000  -45448.78125000
Ag       0.00000000       0.00000000       0.23878788       0.00000000       0.00000000   45448.78125000
2
Properties=species:S:1:pos:R:3:forces:R:3 energy=1397.9116264782763 pbc="F F F"
Ag       0.00000000       0.00000000       0.00000000       0.00000000       0.00000000  -18457.64453125
Ag       0.00000000       0.00000000       0.29757576       0.00000000       0.00000000   18457.64453125
2
Properties=species:S:1:pos:R:3:forces:R:3 energy=658.1792656392246 pbc="F F F"
Ag       0.00000000       0.00000000       0.00000000       0.00000000       0.00000000   -8211.69921875
Ag       0.00000000       0.00000000       0.35636364       0.00000000       0.00000000    8211.69921875
2
Properties=species:S:1:pos:R:3:forces:R:3 energy=322.0449272611103 pbc="F F F"
Ag       0.00000000       0.00000000       0.00000000       0.00000000       0.00000000   -3797.53710938
Ag       0.00000000       0.00000000       0.41515152       0.00000000       0.00000000    3797.53710938
2
Properties=species:S:1:pos:R:3:forces:R:3 energy=167.22911610546763 pbc="F F F"
Ag       0.00000000       0.00000000       0.00000000       0.00000000       0.00000000   -1714.89147949
Ag       0.00000000       0.00000000       0.47393939       0.00000000       0.00000000    1714.89147949
2
Properties=species:S:1:pos:R:3:forces:R:3 energy=100.37924733263746 pbc="F F F"
Ag       0.00000000       0.00000000       0.00000000       0.00000000       0.00000000    -677.47613525
Ag       0.00000000       0.00000000       0.53272727       0.00000000       0.00000000     677.47613525
2
Properties=species:S:1:pos:R:3:forces:R:3 energy=77.37758412938139 pbc="F F F"
Ag       0.00000000       0.00000000       0.00000000       0.00000000       0.00000000    -169.58451843
Ag       0.00000000       0.00000000       0.59151515       0.00000000       0.00000000     169.58451843
2
Properties=species:S:1:pos:R:3:forces:R:3 energy=77.23320547360765 pbc="F F F"
Ag       0.00000000       0.00000000       0.00000000       0.00000000       0.00000000     145.91810608
Ag       0.00000000       0.00000000       0.65030303       0.00000000       0.00000000    -145.91810608
2
Properties=species:S:1:pos:R:3:forces:R:3 energy=82.57329337532003 pbc="F F F"
Ag       0.00000000       0.00000000       0.00000000       0.00000000       0.00000000      48.62865829
Ag       0.00000000       0.00000000       0.70909091       0.00000000       0.00000000     -48.62865829
2
Properties=species:S:1:pos:R:3:forces:R:3 energy=80.70937127360243 pbc="F F F"
Ag       0.00000000       0.00000000       0.00000000       0.00000000       0.00000000    -340.17498779
Ag       0.00000000       0.00000000       0.76787879       0.00000000       0.00000000     340.17498779
2
Properties=species:S:1:pos:R:3:forces:R:3 energy=61.30549785375758 pbc="F F F"
Ag       0.00000000       0.00000000       0.00000000       0.00000000       0.00000000    -290.01989746
Ag       0.00000000       0.00000000       0.82666667       0.00000000       0.00000000     290.01989746
2
Properties=species:S:1:pos:R:3:forces:R:3 energy=46.61507583049816 pbc="F F F"
Ag       0.00000000       0.00000000       0.00000000       0.00000000       0.00000000    -219.51504517
Ag       0.00000000       0.00000000       0.88545455       0.00000000       0.00000000     219.51504517
2
Properties=species:S:1:pos:R:3:forces:R:3 energy=35.182161145712676 pbc="F F F"
Ag       0.00000000       0.00000000       0.00000000       0.00000000       0.00000000    -170.19598389
Ag       0.00000000       0.00000000       0.94424242       0.00000000       0.00000000     170.19598389
2
Properties=species:S:1:pos:R:3:forces:R:3 energy=25.9900225411539 pbc="F F F"
Ag       0.00000000       0.00000000       0.00000000       0.00000000       0.00000000    -148.27467346
Ag       0.00000000       0.00000000       1.00303030       0.00000000       0.00000000     148.27467346
2
Properties=species:S:1:pos:R:3:forces:R:3 energy=17.43461796755894 pbc="F F F"
Ag       0.00000000       0.00000000       0.00000000       0.00000000       0.00000000    -143.30827332
Ag       0.00000000       0.00000000       1.06181818       0.00000000       0.00000000     143.30827332
2
Properties=species:S:1:pos:R:3:forces:R:3 energy=9.143079848618834 pbc="F F F"
Ag       0.00000000       0.00000000       0.00000000       0.00000000       0.00000000    -138.48017883
Ag       0.00000000       0.00000000       1.12060606       0.00000000       0.00000000     138.48017883
2
Properties=species:S:1:pos:R:3:forces:R:3 energy=1.229608782710246 pbc="F F F"
Ag       0.00000000       0.00000000       0.00000000       0.00000000       0.00000000    -129.66957092
Ag       0.00000000       0.00000000       1.17939394       0.00000000       0.00000000     129.66957092
2
Properties=species:S:1:pos:R:3:forces:R:3 energy=-5.936332256120279 pbc="F F F"
Ag       0.00000000       0.00000000       0.00000000       0.00000000       0.00000000    -112.53814697
Ag       0.00000000       0.00000000       1.23818182       0.00000000       0.00000000     112.53814697
2
Properties=species:S:1:pos:R:3:forces:R:3 energy=-11.854222549024696 pbc="F F F"
Ag       0.00000000       0.00000000       0.00000000       0.00000000       0.00000000     -88.24265289
Ag       0.00000000       0.00000000       1.29696970       0.00000000       0.00000000      88.24265289
2
Properties=species:S:1:pos:R:3:forces:R:3 energy=-16.36551945423485 pbc="F F F"
Ag       0.00000000       0.00000000       0.00000000       0.00000000       0.00000000     -66.52307129
Ag       0.00000000       0.00000000       1.35575758       0.00000000       0.00000000      66.52307129
2
Properties=species:S:1:pos:R:3:forces:R:3 energy=-19.846844202249528 pbc="F F F"
Ag       0.00000000       0.00000000       0.00000000       0.00000000       0.00000000     -53.16881561
Ag       0.00000000       0.00000000       1.41454545       0.00000000       0.00000000      53.16881561
2
Properties=species:S:1:pos:R:3:forces:R:3 energy=-22.722576129152316 pbc="F F F"
Ag       0.00000000       0.00000000       0.00000000       0.00000000       0.00000000     -45.26133347
Ag       0.00000000       0.00000000       1.47333333       0.00000000       0.00000000      45.26133347
2
Properties=species:S:1:pos:R:3:forces:R:3 energy=-25.214133597465548 pbc="F F F"
Ag       0.00000000       0.00000000       0.00000000       0.00000000       0.00000000     -39.73297882
Ag       0.00000000       0.00000000       1.53212121       0.00000000       0.00000000      39.73297882
2
Properties=species:S:1:pos:R:3:forces:R:3 energy=-27.410143448962597 pbc="F F F"
Ag       0.00000000       0.00000000       0.00000000       0.00000000       0.00000000     -35.05414581
Ag       0.00000000       0.00000000       1.59090909       0.00000000       0.00000000      35.05414581
2
Properties=species:S:1:pos:R:3:forces:R:3 energy=-29.342485084933625 pbc="F F F"
Ag       0.00000000       0.00000000       0.00000000       0.00000000       0.00000000     -30.73852348
Ag       0.00000000       0.00000000       1.64969697       0.00000000       0.00000000      30.73852348
2
Properties=species:S:1:pos:R:3:forces:R:3 energy=-31.030905263599387 pbc="F F F"
Ag       0.00000000       0.00000000       0.00000000       0.00000000       0.00000000     -26.76082420
Ag       0.00000000       0.00000000       1.70848485       0.00000000       0.00000000      26.76082420
2
Properties=species:S:1:pos:R:3:forces:R:3 energy=-32.495383433378194 pbc="F F F"
Ag       0.00000000       0.00000000       0.00000000       0.00000000       0.00000000     -23.11086464
Ag       0.00000000       0.00000000       1.76727273       0.00000000       0.00000000      23.11086464
2
Properties=species:S:1:pos:R:3:forces:R:3 energy=-33.75339278500093 pbc="F F F"
Ag       0.00000000       0.00000000       0.00000000       0.00000000       0.00000000     -19.72974586
Ag       0.00000000       0.00000000       1.82606061       0.00000000       0.00000000      19.72974586
2
Properties=species:S:1:pos:R:3:forces:R:3 energy=-34.82038853513692 pbc="F F F"
Ag       0.00000000       0.00000000       0.00000000       0.00000000       0.00000000     -16.61946297
Ag       0.00000000       0.00000000       1.88484848       0.00000000       0.00000000      16.61946297
2
Properties=species:S:1:pos:R:3:forces:R:3 energy=-35.71370082416155 pbc="F F F"
Ag       0.00000000       0.00000000       0.00000000       0.00000000       0.00000000     -13.82699585
Ag       0.00000000       0.00000000       1.94363636       0.00000000       0.00000000      13.82699585
2
Properties=species:S:1:pos:R:3:forces:R:3 energy=-36.452586212985416 pbc="F F F"
Ag       0.00000000       0.00000000       0.00000000       0.00000000       0.00000000     -11.36323357
Ag       0.00000000       0.00000000       2.00242424       0.00000000       0.00000000      11.36323357
2
Properties=species:S:1:pos:R:3:forces:R:3 energy=-37.055553597694185 pbc="F F F"
Ag       0.00000000       0.00000000       0.00000000       0.00000000       0.00000000      -9.19606113
Ag       0.00000000       0.00000000       2.06121212       0.00000000       0.00000000       9.19606113
2
Properties=species:S:1:pos:R:3:forces:R:3 energy=-37.5388573993769 pbc="F F F"
Ag       0.00000000       0.00000000       0.00000000       0.00000000       0.00000000      -7.28652239
Ag       0.00000000       0.00000000       2.12000000       0.00000000       0.00000000       7.28652239
2
Properties=species:S:1:pos:R:3:forces:R:3 energy=-37.91682564234606 pbc="F F F"
Ag       0.00000000       0.00000000       0.00000000       0.00000000       0.00000000      -5.60979605
Ag       0.00000000       0.00000000       2.17878788       0.00000000       0.00000000       5.60979605
2
Properties=species:S:1:pos:R:3:forces:R:3 energy=-38.20279458031023 pbc="F F F"
Ag       0.00000000       0.00000000       0.00000000       0.00000000       0.00000000      -4.15580225
Ag       0.00000000       0.00000000       2.23757576       0.00000000       0.00000000       4.15580225
2
Properties=species:S:1:pos:R:3:forces:R:3 energy=-38.409753392883275 pbc="F F F"
Ag       0.00000000       0.00000000       0.00000000       0.00000000       0.00000000      -2.92160869
Ag       0.00000000       0.00000000       2.29636364       0.00000000       0.00000000       2.92160869
2
Properties=species:S:1:pos:R:3:forces:R:3 energy=-38.55053878978978 pbc="F F F"
Ag       0.00000000       0.00000000       0.00000000       0.00000000       0.00000000      -1.90340471
Ag       0.00000000       0.00000000       2.35515152       0.00000000       0.00000000       1.90340471
2
Properties=species:S:1:pos:R:3:forces:R:3 energy=-38.637583293906594 pbc="F F F"
Ag       0.00000000       0.00000000       0.00000000       0.00000000       0.00000000      -1.09082365
Ag       0.00000000       0.00000000       2.41393939       0.00000000       0.00000000       1.09082365
2
Properties=species:S:1:pos:R:3:forces:R:3 energy=-38.68246141424934 pbc="F F F"
Ag       0.00000000       0.00000000       0.00000000       0.00000000       0.00000000      -0.46510741
Ag       0.00000000       0.00000000       2.47272727       0.00000000       0.00000000       0.46510741
2
Properties=species:S:1:pos:R:3:forces:R:3 energy=-38.69543970651613 pbc="F F F"
Ag       0.00000000       0.00000000       0.00000000       0.00000000       0.00000000      -0.00110411
Ag       0.00000000       0.00000000       2.53151515       0.00000000       0.00000000       0.00110411
2
Properties=species:S:1:pos:R:3:forces:R:3 energy=-38.68521776331567 pbc="F F F"
Ag       0.00000000       0.00000000       0.00000000       0.00000000       0.00000000       0.32882980
Ag       0.00000000       0.00000000       2.59030303       0.00000000       0.00000000      -0.32882980
2
Properties=species:S:1:pos:R:3:forces:R:3 energy=-38.65886790602613 pbc="F F F"
Ag       0.00000000       0.00000000       0.00000000       0.00000000       0.00000000       0.55195141
Ag       0.00000000       0.00000000       2.64909091       0.00000000       0.00000000      -0.55195141
2
Properties=species:S:1:pos:R:3:forces:R:3 energy=-38.62190527961768 pbc="F F F"
Ag       0.00000000       0.00000000       0.00000000       0.00000000       0.00000000       0.69427878
Ag       0.00000000       0.00000000       2.70787879       0.00000000       0.00000000      -0.69427878
2
Properties=species:S:1:pos:R:3:forces:R:3 energy=-38.578340168835894 pbc="F F F"
Ag       0.00000000       0.00000000       0.00000000       0.00000000       0.00000000       0.78024924
Ag       0.00000000       0.00000000       2.76666667       0.00000000       0.00000000      -0.78024924
2
Properties=species:S:1:pos:R:3:forces:R:3 energy=-38.530842876145314 pbc="F F F"
Ag       0.00000000       0.00000000       0.00000000       0.00000000       0.00000000       0.83148390
Ag       0.00000000       0.00000000       2.82545455       0.00000000       0.00000000      -0.83148390
2
Properties=species:S:1:pos:R:3:forces:R:3 energy=-38.48092525626345 pbc="F F F"
Ag       0.00000000       0.00000000       0.00000000       0.00000000       0.00000000       0.86478925
Ag       0.00000000       0.00000000       2.88424242       0.00000000       0.00000000      -0.86478925
2
Properties=species:S:1:pos:R:3:forces:R:3 energy=-38.429303806154095 pbc="F F F"
Ag       0.00000000       0.00000000       0.00000000       0.00000000       0.00000000       0.89086390
Ag       0.00000000       0.00000000       2.94303030       0.00000000       0.00000000      -0.89086390
2
Properties=species:S:1:pos:R:3:forces:R:3 energy=-38.37622291789149 pbc="F F F"
Ag       0.00000000       0.00000000       0.00000000       0.00000000       0.00000000       0.91480213
Ag       0.00000000       0.00000000       3.00181818       0.00000000       0.00000000      -0.91480213
2
Properties=species:S:1:pos:R:3:forces:R:3 energy=-38.321759409724685 pbc="F F F"
Ag       0.00000000       0.00000000       0.00000000       0.00000000       0.00000000       0.93792886
Ag       0.00000000       0.00000000       3.06060606       0.00000000       0.00000000      -0.93792886
2
Properties=species:S:1:pos:R:3:forces:R:3 energy=-38.26598903124291 pbc="F F F"
Ag       0.00000000       0.00000000       0.00000000       0.00000000       0.00000000       0.95868409
Ag       0.00000000       0.00000000       3.11939394       0.00000000       0.00000000      -0.95868409
2
Properties=species:S:1:pos:R:3:forces:R:3 energy=-38.2091656399888 pbc="F F F"
Ag       0.00000000       0.00000000       0.00000000       0.00000000       0.00000000       0.97293293
Ag       0.00000000       0.00000000       3.17818182       0.00000000       0.00000000      -0.97293293
2
Properties=species:S:1:pos:R:3:forces:R:3 energy=-38.15181007879185 pbc="F F F"
Ag       0.00000000       0.00000000       0.00000000       0.00000000       0.00000000       0.97639459
Ag       0.00000000       0.00000000       3.23696970       0.00000000       0.00000000      -0.97639459
2
Properties=species:S:1:pos:R:3:forces:R:3 energy=-38.09461610586511 pbc="F F F"
Ag       0.00000000       0.00000000       0.00000000       0.00000000       0.00000000       0.96717864
Ag       0.00000000       0.00000000       3.29575758       0.00000000       0.00000000      -0.96717864
2
Properties=species:S:1:pos:R:3:forces:R:3 energy=-38.03832718510873 pbc="F F F"
Ag       0.00000000       0.00000000       0.00000000       0.00000000       0.00000000       0.94600958
Ag       0.00000000       0.00000000       3.35454545       0.00000000       0.00000000      -0.94600958
2
Properties=species:S:1:pos:R:3:forces:R:3 energy=-37.983577089349076 pbc="F F F"
Ag       0.00000000       0.00000000       0.00000000       0.00000000       0.00000000       0.91536534
Ag       0.00000000       0.00000000       3.41333333       0.00000000       0.00000000      -0.91536534
2
Properties=species:S:1:pos:R:3:forces:R:3 energy=-37.93081896098658 pbc="F F F"
Ag       0.00000000       0.00000000       0.00000000       0.00000000       0.00000000       0.87866622
Ag       0.00000000       0.00000000       3.47212121       0.00000000       0.00000000      -0.87866622
2
Properties=species:S:1:pos:R:3:forces:R:3 energy=-37.88031177333402 pbc="F F F"
Ag       0.00000000       0.00000000       0.00000000       0.00000000       0.00000000       0.83967322
Ag       0.00000000       0.00000000       3.53090909       0.00000000       0.00000000      -0.83967322
2
Properties=species:S:1:pos:R:3:forces:R:3 energy=-37.83207060744816 pbc="F F F"
Ag       0.00000000       0.00000000       0.00000000       0.00000000       0.00000000       0.80196643
Ag       0.00000000       0.00000000       3.58969697       0.00000000       0.00000000      -0.80196643
2
Properties=species:S:1:pos:R:3:forces:R:3 energy=-37.78593436886221 pbc="F F F"
Ag       0.00000000       0.00000000       0.00000000       0.00000000       0.00000000       0.76852185
Ag       0.00000000       0.00000000       3.64848485       0.00000000       0.00000000      -0.76852185
2
Properties=species:S:1:pos:R:3:forces:R:3 energy=-37.74158669999295 pbc="F F F"
Ag       0.00000000       0.00000000       0.00000000       0.00000000       0.00000000       0.74137712
Ag       0.00000000       0.00000000       3.70727273       0.00000000       0.00000000      -0.74137712
2
Properties=species:S:1:pos:R:3:forces:R:3 energy=-37.698625704328045 pbc="F F F"
Ag       0.00000000       0.00000000       0.00000000       0.00000000       0.00000000       0.72143859
Ag       0.00000000       0.00000000       3.76606061       0.00000000       0.00000000      -0.72143859
2
Properties=species:S:1:pos:R:3:forces:R:3 energy=-37.65662564840881 pbc="F F F"
Ag       0.00000000       0.00000000       0.00000000       0.00000000       0.00000000       0.70849144
Ag       0.00000000       0.00000000       3.82484848       0.00000000       0.00000000      -0.70849144
2
Properties=species:S:1:pos:R:3:forces:R:3 energy=-37.61520977686746 pbc="F F F"
Ag       0.00000000       0.00000000       0.00000000       0.00000000       0.00000000       0.70136911
Ag       0.00000000       0.00000000       3.88363636       0.00000000       0.00000000      -0.70136911
2
Properties=species:S:1:pos:R:3:forces:R:3 energy=-37.57408110877351 pbc="F F F"
Ag       0.00000000       0.00000000       0.00000000       0.00000000       0.00000000       0.69825274
Ag       0.00000000       0.00000000       3.94242424       0.00000000       0.00000000      -0.69825274
2
Properties=species:S:1:pos:R:3:forces:R:3 energy=-37.53307592417502 pbc="F F F"
Ag       0.00000000       0.00000000       0.00000000       0.00000000       0.00000000       0.69702142
Ag       0.00000000       0.00000000       4.00121212       0.00000000       0.00000000      -0.69702142
2
Properties=species:S:1:pos:R:3:forces:R:3 energy=-37.49213337877704 pbc="F F F"
Ag       0.00000000       0.00000000       0.00000000       0.00000000       0.00000000       0.69556266
Ag       0.00000000       0.00000000       4.06000000       0.00000000       0.00000000      -0.69556266
2
Properties=species:S:1:pos:R:3:forces:R:3 energy=-37.45133369130395 pbc="F F F"
Ag       0.00000000       0.00000000       0.00000000       0.00000000       0.00000000       0.69200534
Ag       0.00000000       0.00000000       4.11878788       0.00000000       0.00000000      -0.69200534
2
Properties=species:S:1:pos:R:3:forces:R:3 energy=-37.410840964222224 pbc="F F F"
Ag       0.00000000       0.00000000       0.00000000       0.00000000       0.00000000       0.68484014
Ag       0.00000000       0.00000000       4.17757576       0.00000000       0.00000000      -0.68484014
2
Properties=species:S:1:pos:R:3:forces:R:3 energy=-37.370907028531974 pbc="F F F"
Ag       0.00000000       0.00000000       0.00000000       0.00000000       0.00000000       0.67294985
Ag       0.00000000       0.00000000       4.23636364       0.00000000       0.00000000      -0.67294985
2
Properties=species:S:1:pos:R:3:forces:R:3 energy=-37.331825682446905 pbc="F F F"
Ag       0.00000000       0.00000000       0.00000000       0.00000000       0.00000000       0.65558887
Ag       0.00000000       0.00000000       4.29515152       0.00000000       0.00000000      -0.65558887
2
Properties=species:S:1:pos:R:3:forces:R:3 energy=-37.293940354842974 pbc="F F F"
Ag       0.00000000       0.00000000       0.00000000       0.00000000       0.00000000       0.63239175
Ag       0.00000000       0.00000000       4.35393939       0.00000000       0.00000000      -0.63239175
2
Properties=species:S:1:pos:R:3:forces:R:3 energy=-37.25759068999317 pbc="F F F"
Ag       0.00000000       0.00000000       0.00000000       0.00000000       0.00000000       0.60333681
Ag       0.00000000       0.00000000       4.41272727       0.00000000       0.00000000      -0.60333681
2
Properties=species:S:1:pos:R:3:forces:R:3 energy=-37.223108751877206 pbc="F F F"
Ag       0.00000000       0.00000000       0.00000000       0.00000000       0.00000000       0.56878459
Ag       0.00000000       0.00000000       4.47151515       0.00000000       0.00000000      -0.56878459
2
Properties=species:S:1:pos:R:3:forces:R:3 energy=-37.190807589593156 pbc="F F F"
Ag       0.00000000       0.00000000       0.00000000       0.00000000       0.00000000       0.52942604
Ag       0.00000000       0.00000000       4.53030303       0.00000000       0.00000000      -0.52942604
2
Properties=species:S:1:pos:R:3:forces:R:3 energy=-37.16093927727149 pbc="F F F"
Ag       0.00000000       0.00000000       0.00000000       0.00000000       0.00000000       0.48619175
Ag       0.00000000       0.00000000       4.58909091       0.00000000       0.00000000      -0.48619175
2
Properties=species:S:1:pos:R:3:forces:R:3 energy=-37.13369872402056 pbc="F F F"
Ag       0.00000000       0.00000000       0.00000000       0.00000000       0.00000000       0.44014785
Ag       0.00000000       0.00000000       4.64787879       0.00000000       0.00000000      -0.44014785
2
Properties=species:S:1:pos:R:3:forces:R:3 energy=-37.109219882988036 pbc="F F F"
Ag       0.00000000       0.00000000       0.00000000       0.00000000       0.00000000       0.39238515
Ag       0.00000000       0.00000000       4.70666667       0.00000000       0.00000000      -0.39238515
2
Properties=species:S:1:pos:R:3:forces:R:3 energy=-37.0875757260183 pbc="F F F"
Ag       0.00000000       0.00000000       0.00000000       0.00000000       0.00000000       0.34402645
Ag       0.00000000       0.00000000       4.76545455       0.00000000       0.00000000      -0.34402645
2
Properties=species:S:1:pos:R:3:forces:R:3 energy=-37.06875918679722 pbc="F F F"
Ag       0.00000000       0.00000000       0.00000000       0.00000000       0.00000000       0.29624516
Ag       0.00000000       0.00000000       4.82424242       0.00000000       0.00000000      -0.29624516
2
Properties=species:S:1:pos:R:3:forces:R:3 energy=-37.05270603953224 pbc="F F F"
Ag       0.00000000       0.00000000       0.00000000       0.00000000       0.00000000       0.25036156
Ag       0.00000000       0.00000000       4.88303030       0.00000000       0.00000000      -0.25036156
2
Properties=species:S:1:pos:R:3:forces:R:3 energy=-37.03925674168431 pbc="F F F"
Ag       0.00000000       0.00000000       0.00000000       0.00000000       0.00000000       0.20784684
Ag       0.00000000       0.00000000       4.94181818       0.00000000       0.00000000      -0.20784684
2
Properties=species:S:1:pos:R:3:forces:R:3 energy=-37.0281716887972 pbc="F F F"
Ag       0.00000000       0.00000000       0.00000000       0.00000000       0.00000000       0.17024034
Ag       0.00000000       0.00000000       5.00060606       0.00000000       0.00000000      -0.17024034
2
Properties=species:S:1:pos:R:3:forces:R:3 energy=-37.01911977198959 pbc="F F F"
Ag       0.00000000       0.00000000       0.00000000       0.00000000       0.00000000       0.13885947
Ag       0.00000000       0.00000000       5.05939394       0.00000000       0.00000000      -0.13885947
2
Properties=species:S:1:pos:R:3:forces:R:3 energy=-37.01170887811015 pbc="F F F"
Ag       0.00000000       0.00000000       0.00000000       0.00000000       0.00000000       0.11440993
Ag       0.00000000       0.00000000       5.11818182       0.00000000       0.00000000      -0.11440993
2
Properties=species:S:1:pos:R:3:forces:R:3 energy=-37.00553927570043 pbc="F F F"
Ag       0.00000000       0.00000000       0.00000000       0.00000000       0.00000000       0.09654762
Ag       0.00000000       0.00000000       5.17696970       0.00000000       0.00000000      -0.09654762
2
Properties=species:S:1:pos:R:3:forces:R:3 energy=-37.00026085366876 pbc="F F F"
Ag       0.00000000       0.00000000       0.00000000       0.00000000       0.00000000       0.08352721
Ag       0.00000000       0.00000000       5.23575758       0.00000000       0.00000000      -0.08352721
2
Properties=species:S:1:pos:R:3:forces:R:3 energy=-36.99568370791323 pbc="F F F"
Ag       0.00000000       0.00000000       0.00000000       0.00000000       0.00000000       0.07229554
Ag       0.00000000       0.00000000       5.29454545       0.00000000       0.00000000      -0.07229554
2
Properties=species:S:1:pos:R:3:forces:R:3 energy=-36.991785780219644 pbc="F F F"
Ag       0.00000000       0.00000000       0.00000000       0.00000000       0.00000000       0.06008625
Ag       0.00000000       0.00000000       5.35333333       0.00000000       0.00000000      -0.06008625
2
Properties=species:S:1:pos:R:3:forces:R:3 energy=-36.988606026939216 pbc="F F F"
Ag       0.00000000       0.00000000       0.00000000       0.00000000       0.00000000       0.04875606
Ag       0.00000000       0.00000000       5.41212121       0.00000000       0.00000000      -0.04875606
2
Properties=species:S:1:pos:R:3:forces:R:3 energy=-36.9858705667772 pbc="F F F"
Ag       0.00000000       0.00000000       0.00000000       0.00000000       0.00000000       0.04630445
Ag       0.00000000       0.00000000       5.47090909       0.00000000       0.00000000      -0.04630445
2
Properties=species:S:1:pos:R:3:forces:R:3 energy=-36.98297742913144 pbc="F F F"
Ag       0.00000000       0.00000000       0.00000000       0.00000000       0.00000000       0.05249130
Ag       0.00000000       0.00000000       5.52969697       0.00000000       0.00000000      -0.05249130
2
Properties=species:S:1:pos:R:3:forces:R:3 energy=-36.97981667836645 pbc="F F F"
Ag       0.00000000       0.00000000       0.00000000       0.00000000       0.00000000       0.05343239
Ag       0.00000000       0.00000000       5.58848485       0.00000000       0.00000000      -0.05343239
2
Properties=species:S:1:pos:R:3:forces:R:3 energy=-36.97684292711559 pbc="F F F"
Ag       0.00000000       0.00000000       0.00000000       0.00000000       0.00000000       0.04743488
Ag       0.00000000       0.00000000       5.64727273       0.00000000       0.00000000      -0.04743488
2
Properties=species:S:1:pos:R:3:forces:R:3 energy=-36.97411779975002 pbc="F F F"
Ag       0.00000000       0.00000000       0.00000000       0.00000000       0.00000000       0.04735289
Ag       0.00000000       0.00000000       5.70606061       0.00000000       0.00000000      -0.04735289
2
Properties=species:S:1:pos:R:3:forces:R:3 energy=-36.971039109463725 pbc="F F F"
Ag       0.00000000       0.00000000       0.00000000       0.00000000       0.00000000       0.05782610
Ag       0.00000000       0.00000000       5.76484848       0.00000000       0.00000000      -0.05782610
2
Properties=species:S:1:pos:R:3:forces:R:3 energy=-36.967519606064194 pbc="F F F"
Ag       0.00000000       0.00000000       0.00000000       0.00000000       0.00000000       0.05860237
Ag       0.00000000       0.00000000       5.82363636       0.00000000       0.00000000      -0.05860237
2
Properties=species:S:1:pos:R:3:forces:R:3 energy=-36.9645972966487 pbc="F F F"
Ag       0.00000000       0.00000000       0.00000000       0.00000000       0.00000000       0.03833023
Ag       0.00000000       0.00000000       5.88242424       0.00000000       0.00000000      -0.03833023
2
Properties=species:S:1:pos:R:3:forces:R:3 energy=-36.96308888122816 pbc="F F F"
Ag       0.00000000       0.00000000       0.00000000       0.00000000       0.00000000       0.01401281
Ag       0.00000000       0.00000000       5.94121212       0.00000000       0.00000000      -0.01401281
2
Properties=species:S:1:pos:R:3:forces:R:3 energy=-36.96265896263458 pbc="F F F"
Ag       0.00000000       0.00000000       0.00000000       0.00000000       0.00000000       0.00388156
Ag       0.00000000       0.00000000       6.00000000       0.00000000       0.00000000      -0.00388156
