2
Properties=species:S:1:pos:R:3:forces:R:3 energy=5829282.474398108 pbc="F F F"
Ba       0.00000000       0.00000000       0.00000000       0.00000000       0.00000000 -451518.43750000
Ba       0.00000000       0.00000000       0.18000000       0.00000000       0.00000000  451518.43750000
2
Properties=species:S:1:pos:R:3:forces:R:3 energy=5794173.974398108 pbc="F F F"
Ba       0.00000000       0.00000000       0.00000000       0.00000000       0.00000000 -825134.56250000
Ba       0.00000000       0.00000000       0.23878788       0.00000000       0.00000000  825134.56250000
2
Properties=species:S:1:pos:R:3:forces:R:3 energy=5722650.474398108 pbc="F F F"
Ba       0.00000000       0.00000000       0.00000000       0.00000000       0.00000000 -1690757.00000000
Ba       0.00000000       0.00000000       0.29757576       0.00000000       0.00000000 1690757.00000000
2
Properties=species:S:1:pos:R:3:forces:R:3 energy=5584256.474398108 pbc="F F F"
Ba       0.00000000       0.00000000       0.00000000       0.00000000       0.00000000 -3118594.50000000
Ba       0.00000000       0.00000000       0.35636364       0.00000000       0.00000000 3118594.50000000
2
Properties=species:S:1:pos:R:3:forces:R:3 energy=5343900.474398108 pbc="F F F"
Ba       0.00000000       0.00000000       0.00000000       0.00000000       0.00000000 -5160665.00000000
Ba       0.00000000       0.00000000       0.41515152       0.00000000       0.00000000 5160665.00000000
2
Properties=species:S:1:pos:R:3:forces:R:3 energy=4966697.974398108 pbc="F F F"
Ba       0.00000000       0.00000000       0.00000000       0.00000000       0.00000000 -7747074.50000000
Ba       0.00000000       0.00000000       0.47393939       0.00000000       0.00000000 7747074.50000000
2
Properties=species:S:1:pos:R:3:forces:R:3 energy=4427681.974398108 pbc="F F F"
Ba       0.00000000       0.00000000       0.00000000       0.00000000       0.00000000 -10597775.00000000
Ba       0.00000000       0.00000000       0.53272727       0.00000000       0.00000000 10597775.00000000
2
Properties=species:S:1:pos:R:3:forces:R:3 energy=3725930.7243981096 pbc="F F F"
Ba       0.00000000       0.00000000       0.00000000       0.00000000       0.00000000 -13171566.00000000
Ba       0.00000000       0.00000000       0.59151515       0.00000000       0.00000000 13171566.00000000
2
Properties=species:S:1:pos:R:3:forces:R:3 energy=2895566.9743981115 pbc="F F F"
Ba       0.00000000       0.00000000       0.00000000       0.00000000       0.00000000 -14809597.00000000
Ba       0.00000000       0.00000000       0.65030303       0.00000000       0.00000000 14809597.00000000
2
Properties=species:S:1:pos:R:3:forces:R:3 energy=2021935.9743981145 pbc="F F F"
Ba       0.00000000       0.00000000       0.00000000       0.00000000       0.00000000 -14574499.00000000
Ba       0.00000000       0.00000000       0.70909091       0.00000000       0.00000000 14574499.00000000
2
Properties=species:S:1:pos:R:3:forces:R:3 energy=1226119.2243981191 pbc="F F F"
Ba       0.00000000       0.00000000       0.00000000       0.00000000       0.00000000 -12272411.00000000
Ba       0.00000000       0.00000000       0.76787879       0.00000000       0.00000000 12272411.00000000
2
Properties=species:S:1:pos:R:3:forces:R:3 energy=609730.4743981271 pbc="F F F"
Ba       0.00000000       0.00000000       0.00000000       0.00000000       0.00000000 -8532580.00000000
Ba       0.00000000       0.00000000       0.82666667       0.00000000       0.00000000 8532580.00000000
2
Properties=species:S:1:pos:R:3:forces:R:3 energy=228001.99002313658 pbc="F F F"
Ba       0.00000000       0.00000000       0.00000000       0.00000000       0.00000000 -4535467.50000000
Ba       0.00000000       0.00000000       0.88545455       0.00000000       0.00000000 4535467.50000000
2
Properties=species:S:1:pos:R:3:forces:R:3 energy=54665.48221065083 pbc="F F F"
Ba       0.00000000       0.00000000       0.00000000       0.00000000       0.00000000 -1621470.62500000
Ba       0.00000000       0.00000000       0.94424242       0.00000000       0.00000000 1621470.62500000
2
Properties=species:S:1:pos:R:3:forces:R:3 energy=5657.762972387001 pbc="F F F"
Ba       0.00000000       0.00000000       0.00000000       0.00000000       0.00000000 -291211.78125000
Ba       0.00000000       0.00000000       1.00303030       0.00000000       0.00000000  291211.78125000
2
Properties=species:S:1:pos:R:3:forces:R:3 energy=46.53705459618226 pbc="F F F"
Ba       0.00000000       0.00000000       0.00000000       0.00000000       0.00000000    -241.65350342
Ba       0.00000000       0.00000000       1.06181818       0.00000000       0.00000000     241.65350342
2
Properties=species:S:1:pos:R:3:forces:R:3 energy=29.950575444016586 pbc="F F F"
Ba       0.00000000       0.00000000       0.00000000       0.00000000       0.00000000    -592.47167969
Ba       0.00000000       0.00000000       1.12060606       0.00000000       0.00000000     592.47167969
2
Properties=species:S:1:pos:R:3:forces:R:3 energy=16.640448230065314 pbc="F F F"
Ba       0.00000000       0.00000000       0.00000000       0.00000000       0.00000000    -161.23672485
Ba       0.00000000       0.00000000       1.17939394       0.00000000       0.00000000     161.23672485
2
Properties=species:S:1:pos:R:3:forces:R:3 energy=6.860659312971025 pbc="F F F"
Ba       0.00000000       0.00000000       0.00000000       0.00000000       0.00000000    -166.09928894
Ba       0.00000000       0.00000000       1.23818182       0.00000000       0.00000000     166.09928894
2
Properties=species:S:1:pos:R:3:forces:R:3 energy=-2.5833828215635237 pbc="F F F"
Ba       0.00000000       0.00000000       0.00000000       0.00000000       0.00000000    -152.17398071
Ba       0.00000000       0.00000000       1.29696970       0.00000000       0.00000000     152.17398071
2
Properties=species:S:1:pos:R:3:forces:R:3 energy=-10.619294289755276 pbc="F F F"
Ba       0.00000000       0.00000000       0.00000000       0.00000000       0.00000000    -118.40265656
Ba       0.00000000       0.00000000       1.35575758       0.00000000       0.00000000     118.40265656
2
Properties=species:S:1:pos:R:3:forces:R:3 energy=-16.44699956059837 pbc="F F F"
Ba       0.00000000       0.00000000       0.00000000       0.00000000       0.00000000     -81.80103302
Ba       0.00000000       0.00000000       1.41454545       0.00000000       0.00000000      81.80103302
2
Properties=species:S:1:pos:R:3:forces:R:3 energy=-20.587942951603697 pbc="F F F"
Ba       0.00000000       0.00000000       0.00000000       0.00000000       0.00000000     -61.93297195
Ba       0.00000000       0.00000000       1.47333333       0.00000000       0.00000000      61.93297195
2
Properties=species:S:1:pos:R:3:forces:R:3 energy=-23.958130539940715 pbc="F F F"
Ba       0.00000000       0.00000000       0.00000000       0.00000000       0.00000000     -53.87108612
Ba       0.00000000       0.00000000       1.53212121       0.00000000       0.00000000      53.87108612
2
Properties=species:S:1:pos:R:3:forces:R:3 energy=-27.008001777150515 pbc="F F F"
Ba       0.00000000       0.00000000       0.00000000       0.00000000       0.00000000     -50.38356400
Ba       0.00000000       0.00000000       1.59090909       0.00000000       0.00000000      50.38356400
2
Properties=species:S:1:pos:R:3:forces:R:3 energy=-29.921266753580138 pbc="F F F"
Ba       0.00000000       0.00000000       0.00000000       0.00000000       0.00000000     -48.87583160
Ba       0.00000000       0.00000000       1.64969697       0.00000000       0.00000000      48.87583160
2
Properties=species:S:1:pos:R:3:forces:R:3 energy=-32.74606694397004 pbc="F F F"
Ba       0.00000000       0.00000000       0.00000000       0.00000000       0.00000000     -46.93915176
Ba       0.00000000       0.00000000       1.70848485       0.00000000       0.00000000      46.93915176
2
Properties=species:S:1:pos:R:3:forces:R:3 energy=-35.39120818915255 pbc="F F F"
Ba       0.00000000       0.00000000       0.00000000       0.00000000       0.00000000     -42.61151123
Ba       0.00000000       0.00000000       1.76727273       0.00000000       0.00000000      42.61151123
2
Properties=species:S:1:pos:R:3:forces:R:3 energy=-37.722643920307036 pbc="F F F"
Ba       0.00000000       0.00000000       0.00000000       0.00000000       0.00000000     -36.61407471
Ba       0.00000000       0.00000000       1.82606061       0.00000000       0.00000000      36.61407471
2
Properties=species:S:1:pos:R:3:forces:R:3 energy=-39.691645186642845 pbc="F F F"
Ba       0.00000000       0.00000000       0.00000000       0.00000000       0.00000000     -30.30127907
Ba       0.00000000       0.00000000       1.88484848       0.00000000       0.00000000      30.30127907
2
Properties=species:S:1:pos:R:3:forces:R:3 energy=-41.28471558131464 pbc="F F F"
Ba       0.00000000       0.00000000       0.00000000       0.00000000       0.00000000     -24.04932785
Ba       0.00000000       0.00000000       1.94363636       0.00000000       0.00000000      24.04932785
2
Properties=species:S:1:pos:R:3:forces:R:3 energy=-42.55465049863957 pbc="F F F"
Ba       0.00000000       0.00000000       0.00000000       0.00000000       0.00000000     -19.53536034
Ba       0.00000000       0.00000000       2.00242424       0.00000000       0.00000000      19.53536034
2
Properties=species:S:1:pos:R:3:forces:R:3 energy=-43.62506519083892 pbc="F F F"
Ba       0.00000000       0.00000000       0.00000000       0.00000000       0.00000000     -17.20226097
Ba       0.00000000       0.00000000       2.06121212       0.00000000       0.00000000      17.20226097
2
Properties=species:S:1:pos:R:3:forces:R:3 energy=-44.6060861374349 pbc="F F F"
Ba       0.00000000       0.00000000       0.00000000       0.00000000       0.00000000     -16.33775139
Ba       0.00000000       0.00000000       2.12000000       0.00000000       0.00000000      16.33775139
2
Properties=species:S:1:pos:R:3:forces:R:3 energy=-45.55647110773865 pbc="F F F"
Ba       0.00000000       0.00000000       0.00000000       0.00000000       0.00000000     -16.01758957
Ba       0.00000000       0.00000000       2.17878788       0.00000000       0.00000000      16.01758957
2
Properties=species:S:1:pos:R:3:forces:R:3 energy=-46.48659987083518 pbc="F F F"
Ba       0.00000000       0.00000000       0.00000000       0.00000000       0.00000000     -15.57155228
Ba       0.00000000       0.00000000       2.23757576       0.00000000       0.00000000      15.57155228
2
Properties=species:S:1:pos:R:3:forces:R:3 energy=-47.379756404299584 pbc="F F F"
Ba       0.00000000       0.00000000       0.00000000       0.00000000       0.00000000     -14.75014973
Ba       0.00000000       0.00000000       2.29636364       0.00000000       0.00000000      14.75014973
2
Properties=species:S:1:pos:R:3:forces:R:3 energy=-48.21436857450392 pbc="F F F"
Ba       0.00000000       0.00000000       0.00000000       0.00000000       0.00000000     -13.59933949
Ba       0.00000000       0.00000000       2.35515152       0.00000000       0.00000000      13.59933949
2
Properties=species:S:1:pos:R:3:forces:R:3 energy=-48.97468166590204 pbc="F F F"
Ba       0.00000000       0.00000000       0.00000000       0.00000000       0.00000000     -12.24231434
Ba       0.00000000       0.00000000       2.41393939       0.00000000       0.00000000      12.24231434
2
Properties=species:S:1:pos:R:3:forces:R:3 energy=-49.65182646933749 pbc="F F F"
Ba       0.00000000       0.00000000       0.00000000       0.00000000       0.00000000     -10.78547001
Ba       0.00000000       0.00000000       2.47272727       0.00000000       0.00000000      10.78547001
2
Properties=species:S:1:pos:R:3:forces:R:3 energy=-50.24247655453946 pbc="F F F"
Ba       0.00000000       0.00000000       0.00000000       0.00000000       0.00000000      -9.31138706
Ba       0.00000000       0.00000000       2.53151515       0.00000000       0.00000000       9.31138706
2
Properties=species:S:1:pos:R:3:forces:R:3 energy=-50.747391008249934 pbc="F F F"
Ba       0.00000000       0.00000000       0.00000000       0.00000000       0.00000000      -7.87549400
Ba       0.00000000       0.00000000       2.59030303       0.00000000       0.00000000       7.87549400
2
Properties=species:S:1:pos:R:3:forces:R:3 energy=-51.1697207529873 pbc="F F F"
Ba       0.00000000       0.00000000       0.00000000       0.00000000       0.00000000      -6.50423050
Ba       0.00000000       0.00000000       2.64909091       0.00000000       0.00000000       6.50423050
2
Properties=species:S:1:pos:R:3:forces:R:3 energy=-51.513612328249344 pbc="F F F"
Ba       0.00000000       0.00000000       0.00000000       0.00000000       0.00000000      -5.20884418
Ba       0.00000000       0.00000000       2.70787879       0.00000000       0.00000000       5.20884418
2
Properties=species:S:1:pos:R:3:forces:R:3 energy=-51.78397142521618 pbc="F F F"
Ba       0.00000000       0.00000000       0.00000000       0.00000000       0.00000000      -4.00684023
Ba       0.00000000       0.00000000       2.76666667       0.00000000       0.00000000       4.00684023
2
Properties=species:S:1:pos:R:3:forces:R:3 energy=-51.987187625377786 pbc="F F F"
Ba       0.00000000       0.00000000       0.00000000       0.00000000       0.00000000      -2.93101430
Ba       0.00000000       0.00000000       2.82545455       0.00000000       0.00000000       2.93101430
2
Properties=species:S:1:pos:R:3:forces:R:3 energy=-52.13177915089612 pbc="F F F"
Ba       0.00000000       0.00000000       0.00000000       0.00000000       0.00000000      -2.01751924
Ba       0.00000000       0.00000000       2.88424242       0.00000000       0.00000000       2.01751924
2
Properties=species:S:1:pos:R:3:forces:R:3 energy=-52.228064764210345 pbc="F F F"
Ba       0.00000000       0.00000000       0.00000000       0.00000000       0.00000000      -1.29050899
Ba       0.00000000       0.00000000       2.94303030       0.00000000       0.00000000       1.29050899
2
Properties=species:S:1:pos:R:3:forces:R:3 energy=-52.28737796257485 pbc="F F F"
Ba       0.00000000       0.00000000       0.00000000       0.00000000       0.00000000      -0.76048803
Ba       0.00000000       0.00000000       3.00181818       0.00000000       0.00000000       0.76048803
2
Properties=species:S:1:pos:R:3:forces:R:3 energy=-52.321368890043566 pbc="F F F"
Ba       0.00000000       0.00000000       0.00000000       0.00000000       0.00000000      -0.42843741
Ba       0.00000000       0.00000000       3.06060606       0.00000000       0.00000000       0.42843741
2
Properties=species:S:1:pos:R:3:forces:R:3 energy=-52.34140927954256 pbc="F F F"
Ba       0.00000000       0.00000000       0.00000000       0.00000000       0.00000000      -0.28251410
Ba       0.00000000       0.00000000       3.11939394       0.00000000       0.00000000       0.28251410
2
Properties=species:S:1:pos:R:3:forces:R:3 energy=-52.35763877380191 pbc="F F F"
Ba       0.00000000       0.00000000       0.00000000       0.00000000       0.00000000      -0.29188985
Ba       0.00000000       0.00000000       3.17818182       0.00000000       0.00000000       0.29188985
2
Properties=species:S:1:pos:R:3:forces:R:3 energy=-52.377847263406366 pbc="F F F"
Ba       0.00000000       0.00000000       0.00000000       0.00000000       0.00000000      -0.40903401
Ba       0.00000000       0.00000000       3.23696970       0.00000000       0.00000000       0.40903401
2
Properties=species:S:1:pos:R:3:forces:R:3 energy=-52.406780618228666 pbc="F F F"
Ba       0.00000000       0.00000000       0.00000000       0.00000000       0.00000000      -0.57981968
Ba       0.00000000       0.00000000       3.29575758       0.00000000       0.00000000       0.57981968
2
Properties=species:S:1:pos:R:3:forces:R:3 energy=-52.446060626304295 pbc="F F F"
Ba       0.00000000       0.00000000       0.00000000       0.00000000       0.00000000      -0.75309163
Ba       0.00000000       0.00000000       3.35454545       0.00000000       0.00000000       0.75309163
2
Properties=species:S:1:pos:R:3:forces:R:3 energy=-52.49453981136232 pbc="F F F"
Ba       0.00000000       0.00000000       0.00000000       0.00000000       0.00000000      -0.88678867
Ba       0.00000000       0.00000000       3.41333333       0.00000000       0.00000000       0.88678867
2
Properties=species:S:1:pos:R:3:forces:R:3 energy=-52.548988100507984 pbc="F F F"
Ba       0.00000000       0.00000000       0.00000000       0.00000000       0.00000000      -0.95291173
Ba       0.00000000       0.00000000       3.47212121       0.00000000       0.00000000       0.95291173
2
Properties=species:S:1:pos:R:3:forces:R:3 energy=-52.60505035916977 pbc="F F F"
Ba       0.00000000       0.00000000       0.00000000       0.00000000       0.00000000      -0.94166934
Ba       0.00000000       0.00000000       3.53090909       0.00000000       0.00000000       0.94166934
2
Properties=species:S:1:pos:R:3:forces:R:3 energy=-52.65834888454263 pbc="F F F"
Ba       0.00000000       0.00000000       0.00000000       0.00000000       0.00000000      -0.86149234
Ba       0.00000000       0.00000000       3.58969697       0.00000000       0.00000000       0.86149234
2
Properties=species:S:1:pos:R:3:forces:R:3 energy=-52.70539893451559 pbc="F F F"
Ba       0.00000000       0.00000000       0.00000000       0.00000000       0.00000000      -0.73329908
Ba       0.00000000       0.00000000       3.64848485       0.00000000       0.00000000       0.73329908
2
Properties=species:S:1:pos:R:3:forces:R:3 energy=-52.74410463990026 pbc="F F F"
Ba       0.00000000       0.00000000       0.00000000       0.00000000       0.00000000      -0.58144867
Ba       0.00000000       0.00000000       3.70727273       0.00000000       0.00000000       0.58144867
2
Properties=species:S:1:pos:R:3:forces:R:3 energy=-52.77369407221385 pbc="F F F"
Ba       0.00000000       0.00000000       0.00000000       0.00000000       0.00000000      -0.42583063
Ba       0.00000000       0.00000000       3.76606061       0.00000000       0.00000000       0.42583063
2
Properties=species:S:1:pos:R:3:forces:R:3 energy=-52.79433000517402 pbc="F F F"
Ba       0.00000000       0.00000000       0.00000000       0.00000000       0.00000000      -0.27802709
Ba       0.00000000       0.00000000       3.82484848       0.00000000       0.00000000       0.27802709
2
Properties=species:S:1:pos:R:3:forces:R:3 energy=-52.80661763026608 pbc="F F F"
Ba       0.00000000       0.00000000       0.00000000       0.00000000       0.00000000      -0.14194967
Ba       0.00000000       0.00000000       3.88363636       0.00000000       0.00000000       0.14194967
2
Properties=species:S:1:pos:R:3:forces:R:3 energy=-52.81124949370601 pbc="F F F"
Ba       0.00000000       0.00000000       0.00000000       0.00000000       0.00000000      -0.01750881
Ba       0.00000000       0.00000000       3.94242424       0.00000000       0.00000000       0.01750881
2
Properties=species:S:1:pos:R:3:forces:R:3 energy=-52.808902222429786 pbc="F F F"
Ba       0.00000000       0.00000000       0.00000000       0.00000000       0.00000000       0.09526009
Ba       0.00000000       0.00000000       4.00121212       0.00000000       0.00000000      -0.09526009
2
Properties=species:S:1:pos:R:3:forces:R:3 energy=-52.800324143337185 pbc="F F F"
Ba       0.00000000       0.00000000       0.00000000       0.00000000       0.00000000       0.19381149
Ba       0.00000000       0.00000000       4.06000000       0.00000000       0.00000000      -0.19381149
2
Properties=species:S:1:pos:R:3:forces:R:3 energy=-52.786484244970566 pbc="F F F"
Ba       0.00000000       0.00000000       0.00000000       0.00000000       0.00000000       0.27358362
Ba       0.00000000       0.00000000       4.11878788       0.00000000       0.00000000      -0.27358362
2
Properties=species:S:1:pos:R:3:forces:R:3 energy=-52.768607325504455 pbc="F F F"
Ba       0.00000000       0.00000000       0.00000000       0.00000000       0.00000000       0.33060253
Ba       0.00000000       0.00000000       4.17757576       0.00000000       0.00000000      -0.33060253
2
Properties=species:S:1:pos:R:3:forces:R:3 energy=-52.748072595669555 pbc="F F F"
Ba       0.00000000       0.00000000       0.00000000       0.00000000       0.00000000       0.36427101
Ba       0.00000000       0.00000000       4.23636364       0.00000000       0.00000000      -0.36427101
2
Properties=species:S:1:pos:R:3:forces:R:3 energy=-52.72616049524516 pbc="F F F"
Ba       0.00000000       0.00000000       0.00000000       0.00000000       0.00000000       0.37854445
Ba       0.00000000       0.00000000       4.29515152       0.00000000       0.00000000      -0.37854445
2
Properties=species:S:1:pos:R:3:forces:R:3 energy=-52.70379976772901 pbc="F F F"
Ba       0.00000000       0.00000000       0.00000000       0.00000000       0.00000000       0.38100129
Ba       0.00000000       0.00000000       4.35393939       0.00000000       0.00000000      -0.38100129
2
Properties=species:S:1:pos:R:3:forces:R:3 energy=-52.68142051656126 pbc="F F F"
Ba       0.00000000       0.00000000       0.00000000       0.00000000       0.00000000       0.38055086
Ba       0.00000000       0.00000000       4.41272727       0.00000000       0.00000000      -0.38055086
2
Properties=species:S:1:pos:R:3:forces:R:3 energy=-52.658956771699806 pbc="F F F"
Ba       0.00000000       0.00000000       0.00000000       0.00000000       0.00000000       0.38504604
Ba       0.00000000       0.00000000       4.47151515       0.00000000       0.00000000      -0.38504604
2
Properties=species:S:1:pos:R:3:forces:R:3 energy=-52.635946043663175 pbc="F F F"
Ba       0.00000000       0.00000000       0.00000000       0.00000000       0.00000000       0.39965928
Ba       0.00000000       0.00000000       4.53030303       0.00000000       0.00000000      -0.39965928
2
Properties=species:S:1:pos:R:3:forces:R:3 energy=-52.611727984953404 pbc="F F F"
Ba       0.00000000       0.00000000       0.00000000       0.00000000       0.00000000       0.42628524
Ba       0.00000000       0.00000000       4.58909091       0.00000000       0.00000000      -0.42628524
2
Properties=species:S:1:pos:R:3:forces:R:3 energy=-52.585613095244696 pbc="F F F"
Ba       0.00000000       0.00000000       0.00000000       0.00000000       0.00000000       0.46373728
Ba       0.00000000       0.00000000       4.64787879       0.00000000       0.00000000      -0.46373728
2
Properties=species:S:1:pos:R:3:forces:R:3 energy=-52.557061427386614 pbc="F F F"
Ba       0.00000000       0.00000000       0.00000000       0.00000000       0.00000000       0.50835842
Ba       0.00000000       0.00000000       4.70666667       0.00000000       0.00000000      -0.50835842
2
Properties=species:S:1:pos:R:3:forces:R:3 energy=-52.52580083095827 pbc="F F F"
Ba       0.00000000       0.00000000       0.00000000       0.00000000       0.00000000       0.55513555
Ba       0.00000000       0.00000000       4.76545455       0.00000000       0.00000000      -0.55513555
2
Properties=species:S:1:pos:R:3:forces:R:3 energy=-52.491840174728736 pbc="F F F"
Ba       0.00000000       0.00000000       0.00000000       0.00000000       0.00000000       0.59945530
Ba       0.00000000       0.00000000       4.82424242       0.00000000       0.00000000      -0.59945530
2
Properties=species:S:1:pos:R:3:forces:R:3 energy=-52.45541522049179 pbc="F F F"
Ba       0.00000000       0.00000000       0.00000000       0.00000000       0.00000000       0.63919330
Ba       0.00000000       0.00000000       4.88303030       0.00000000       0.00000000      -0.63919330
2
Properties=species:S:1:pos:R:3:forces:R:3 energy=-52.41674494113569 pbc="F F F"
Ba       0.00000000       0.00000000       0.00000000       0.00000000       0.00000000       0.67621589
Ba       0.00000000       0.00000000       4.94181818       0.00000000       0.00000000      -0.67621589
2
Properties=species:S:1:pos:R:3:forces:R:3 energy=-52.37584791024109 pbc="F F F"
Ba       0.00000000       0.00000000       0.00000000       0.00000000       0.00000000       0.71613753
Ba       0.00000000       0.00000000       5.00060606       0.00000000       0.00000000      -0.71613753
2
Properties=species:S:1:pos:R:3:forces:R:3 energy=-52.332340892296514 pbc="F F F"
Ba       0.00000000       0.00000000       0.00000000       0.00000000       0.00000000       0.76615202
Ba       0.00000000       0.00000000       5.05939394       0.00000000       0.00000000      -0.76615202
2
Properties=species:S:1:pos:R:3:forces:R:3 energy=-52.28547108232212 pbc="F F F"
Ba       0.00000000       0.00000000       0.00000000       0.00000000       0.00000000       0.83083183
Ba       0.00000000       0.00000000       5.11818182       0.00000000       0.00000000      -0.83083183
2
Properties=species:S:1:pos:R:3:forces:R:3 energy=-52.23443596136793 pbc="F F F"
Ba       0.00000000       0.00000000       0.00000000       0.00000000       0.00000000       0.90631038
Ba       0.00000000       0.00000000       5.17696970       0.00000000       0.00000000      -0.90631038
2
Properties=species:S:1:pos:R:3:forces:R:3 energy=-52.17904988334266 pbc="F F F"
Ba       0.00000000       0.00000000       0.00000000       0.00000000       0.00000000       0.97445577
Ba       0.00000000       0.00000000       5.23575758       0.00000000       0.00000000      -0.97445577
2
Properties=species:S:1:pos:R:3:forces:R:3 energy=-52.12063726854273 pbc="F F F"
Ba       0.00000000       0.00000000       0.00000000       0.00000000       0.00000000       1.00376093
Ba       0.00000000       0.00000000       5.29454545       0.00000000       0.00000000      -1.00376093
2
Properties=species:S:1:pos:R:3:forces:R:3 energy=-52.06218225433238 pbc="F F F"
Ba       0.00000000       0.00000000       0.00000000       0.00000000       0.00000000       0.97695762
Ba       0.00000000       0.00000000       5.35333333       0.00000000       0.00000000      -0.97695762
2
Properties=species:S:1:pos:R:3:forces:R:3 energy=-52.005831063130806 pbc="F F F"
Ba       0.00000000       0.00000000       0.00000000       0.00000000       0.00000000       0.94927365
Ba       0.00000000       0.00000000       5.41212121       0.00000000       0.00000000      -0.94927365
2
Properties=species:S:1:pos:R:3:forces:R:3 energy=-51.94855911454029 pbc="F F F"
Ba       0.00000000       0.00000000       0.00000000       0.00000000       0.00000000       1.01724672
Ba       0.00000000       0.00000000       5.47090909       0.00000000       0.00000000      -1.01724672
2
Properties=species:S:1:pos:R:3:forces:R:3 energy=-51.88559728239773 pbc="F F F"
Ba       0.00000000       0.00000000       0.00000000       0.00000000       0.00000000       1.11229908
Ba       0.00000000       0.00000000       5.52969697       0.00000000       0.00000000      -1.11229908
2
Properties=species:S:1:pos:R:3:forces:R:3 energy=-51.82061363855881 pbc="F F F"
Ba       0.00000000       0.00000000       0.00000000       0.00000000       0.00000000       1.07290626
Ba       0.00000000       0.00000000       5.58848485       0.00000000       0.00000000      -1.07290626
2
Properties=species:S:1:pos:R:3:forces:R:3 energy=-51.76101783933236 pbc="F F F"
Ba       0.00000000       0.00000000       0.00000000       0.00000000       0.00000000       0.95933402
Ba       0.00000000       0.00000000       5.64727273       0.00000000       0.00000000      -0.95933402
2
Properties=species:S:1:pos:R:3:forces:R:3 energy=-51.7050256834576 pbc="F F F"
Ba       0.00000000       0.00000000       0.00000000       0.00000000       0.00000000       0.98283124
Ba       0.00000000       0.00000000       5.70606061       0.00000000       0.00000000      -0.98283124
2
Properties=species:S:1:pos:R:3:forces:R:3 energy=-51.64205599267521 pbc="F F F"
Ba       0.00000000       0.00000000       0.00000000       0.00000000       0.00000000       1.15579224
Ba       0.00000000       0.00000000       5.76484848       0.00000000       0.00000000      -1.15579224
2
Properties=species:S:1:pos:R:3:forces:R:3 energy=-51.57366191581249 pbc="F F F"
Ba       0.00000000       0.00000000       0.00000000       0.00000000       0.00000000       1.10703456
Ba       0.00000000       0.00000000       5.82363636       0.00000000       0.00000000      -1.10703456
2
Properties=species:S:1:pos:R:3:forces:R:3 energy=-51.51990918814259 pbc="F F F"
Ba       0.00000000       0.00000000       0.00000000       0.00000000       0.00000000       0.68113428
Ba       0.00000000       0.00000000       5.88242424       0.00000000       0.00000000      -0.68113428
2
Properties=species:S:1:pos:R:3:forces:R:3 energy=-51.49455776165961 pbc="F F F"
Ba       0.00000000       0.00000000       0.00000000       0.00000000       0.00000000       0.20151791
Ba       0.00000000       0.00000000       5.94121212       0.00000000       0.00000000      -0.20151791
2
Properties=species:S:1:pos:R:3:forces:R:3 energy=-51.49037908598827 pbc="F F F"
Ba       0.00000000       0.00000000       0.00000000       0.00000000       0.00000000       0.00546636
Ba       0.00000000       0.00000000       6.00000000       0.00000000       0.00000000      -0.00546636
