2
Properties=species:S:1:pos:R:3:forces:R:3 energy=47270.6713572632 pbc="F F F"
Ca       0.00000000       0.00000000       0.00000000       0.00000000       0.00000000  -41842.25000000
Ca       0.00000000       0.00000000       0.18000000       0.00000000       0.00000000   41842.25000000
2
Properties=species:S:1:pos:R:3:forces:R:3 energy=45257.2924510132 pbc="F F F"
Ca       0.00000000       0.00000000       0.00000000       0.00000000       0.00000000  -32275.08789062
Ca       0.00000000       0.00000000       0.23878788       0.00000000       0.00000000   32275.08789062
2
Properties=species:S:1:pos:R:3:forces:R:3 energy=43023.7455760132 pbc="F F F"
Ca       0.00000000       0.00000000       0.00000000       0.00000000       0.00000000  -46643.86718750
Ca       0.00000000       0.00000000       0.29757576       0.00000000       0.00000000   46643.86718750
2
Properties=species:S:1:pos:R:3:forces:R:3 energy=39491.6830760132 pbc="F F F"
Ca       0.00000000       0.00000000       0.00000000       0.00000000       0.00000000  -75432.16406250
Ca       0.00000000       0.00000000       0.35636364       0.00000000       0.00000000   75432.16406250
2
Properties=species:S:1:pos:R:3:forces:R:3 energy=34004.890107266365 pbc="F F F"
Ca       0.00000000       0.00000000       0.00000000       0.00000000       0.00000000 -111672.71875000
Ca       0.00000000       0.00000000       0.41515152       0.00000000       0.00000000  111672.71875000
2
Properties=species:S:1:pos:R:3:forces:R:3 energy=26582.870576016365 pbc="F F F"
Ca       0.00000000       0.00000000       0.00000000       0.00000000       0.00000000 -140610.29687500
Ca       0.00000000       0.00000000       0.47393939       0.00000000       0.00000000  140610.29687500
2
Properties=species:S:1:pos:R:3:forces:R:3 energy=17862.839326019533 pbc="F F F"
Ca       0.00000000       0.00000000       0.00000000       0.00000000       0.00000000 -151195.96875000
Ca       0.00000000       0.00000000       0.53272727       0.00000000       0.00000000  151195.96875000
2
Properties=species:S:1:pos:R:3:forces:R:3 energy=9475.3725291477 pbc="F F F"
Ca       0.00000000       0.00000000       0.00000000       0.00000000       0.00000000 -128258.96875000
Ca       0.00000000       0.00000000       0.59151515       0.00000000       0.00000000  128258.96875000
2
Properties=species:S:1:pos:R:3:forces:R:3 energy=3348.519501813453 pbc="F F F"
Ca       0.00000000       0.00000000       0.00000000       0.00000000       0.00000000  -77321.10937500
Ca       0.00000000       0.00000000       0.65030303       0.00000000       0.00000000   77321.10937500
2
Properties=species:S:1:pos:R:3:forces:R:3 energy=421.1932689159683 pbc="F F F"
Ca       0.00000000       0.00000000       0.00000000       0.00000000       0.00000000  -25020.26757812
Ca       0.00000000       0.00000000       0.70909091       0.00000000       0.00000000   25020.26757812
2
Properties=species:S:1:pos:R:3:forces:R:3 energy=20.410353822786607 pbc="F F F"
Ca       0.00000000       0.00000000       0.00000000       0.00000000       0.00000000    -441.96334839
Ca       0.00000000       0.00000000       0.76787879       0.00000000       0.00000000     441.96334839
2
Properties=species:S:1:pos:R:3:forces:R:3 energy=15.026158523538218 pbc="F F F"
Ca       0.00000000       0.00000000       0.00000000       0.00000000       0.00000000     140.69139099
Ca       0.00000000       0.00000000       0.82666667       0.00000000       0.00000000    -140.69139099
2
Properties=species:S:1:pos:R:3:forces:R:3 energy=27.113848918113458 pbc="F F F"
Ca       0.00000000       0.00000000       0.00000000       0.00000000       0.00000000     225.60160828
Ca       0.00000000       0.00000000       0.88545455       0.00000000       0.00000000    -225.60160828
2
Properties=species:S:1:pos:R:3:forces:R:3 energy=27.792960455847147 pbc="F F F"
Ca       0.00000000       0.00000000       0.00000000       0.00000000       0.00000000    -102.57553101
Ca       0.00000000       0.00000000       0.94424242       0.00000000       0.00000000     102.57553101
2
Properties=species:S:1:pos:R:3:forces:R:3 energy=22.509005917849198 pbc="F F F"
Ca       0.00000000       0.00000000       0.00000000       0.00000000       0.00000000     -82.57704926
Ca       0.00000000       0.00000000       1.00303030       0.00000000       0.00000000      82.57704926
2
Properties=species:S:1:pos:R:3:forces:R:3 energy=18.086558824133128 pbc="F F F"
Ca       0.00000000       0.00000000       0.00000000       0.00000000       0.00000000     -69.13542938
Ca       0.00000000       0.00000000       1.06181818       0.00000000       0.00000000      69.13542938
2
Properties=species:S:1:pos:R:3:forces:R:3 energy=14.360391287852117 pbc="F F F"
Ca       0.00000000       0.00000000       0.00000000       0.00000000       0.00000000     -56.92131042
Ca       0.00000000       0.00000000       1.12060606       0.00000000       0.00000000      56.92131042
2
Properties=species:S:1:pos:R:3:forces:R:3 energy=11.36478791652008 pbc="F F F"
Ca       0.00000000       0.00000000       0.00000000       0.00000000       0.00000000     -46.29722977
Ca       0.00000000       0.00000000       1.17939394       0.00000000       0.00000000      46.29722977
2
Properties=species:S:1:pos:R:3:forces:R:3 energy=8.767738444139797 pbc="F F F"
Ca       0.00000000       0.00000000       0.00000000       0.00000000       0.00000000     -42.82677841
Ca       0.00000000       0.00000000       1.23818182       0.00000000       0.00000000      42.82677841
2
Properties=species:S:1:pos:R:3:forces:R:3 energy=6.289249829299404 pbc="F F F"
Ca       0.00000000       0.00000000       0.00000000       0.00000000       0.00000000     -41.58530045
Ca       0.00000000       0.00000000       1.29696970       0.00000000       0.00000000      41.58530045
2
Properties=species:S:1:pos:R:3:forces:R:3 energy=3.881305536513452 pbc="F F F"
Ca       0.00000000       0.00000000       0.00000000       0.00000000       0.00000000     -40.21001816
Ca       0.00000000       0.00000000       1.35575758       0.00000000       0.00000000      40.21001816
2
Properties=species:S:1:pos:R:3:forces:R:3 energy=1.5856240677600653 pbc="F F F"
Ca       0.00000000       0.00000000       0.00000000       0.00000000       0.00000000     -37.62852478
Ca       0.00000000       0.00000000       1.41454545       0.00000000       0.00000000      37.62852478
2
Properties=species:S:1:pos:R:3:forces:R:3 energy=-0.5112591073252598 pbc="F F F"
Ca       0.00000000       0.00000000       0.00000000       0.00000000       0.00000000     -33.46719360
Ca       0.00000000       0.00000000       1.47333333       0.00000000       0.00000000      33.46719360
2
Properties=species:S:1:pos:R:3:forces:R:3 energy=-2.3274152397246035 pbc="F F F"
Ca       0.00000000       0.00000000       0.00000000       0.00000000       0.00000000     -28.19204330
Ca       0.00000000       0.00000000       1.53212121       0.00000000       0.00000000      28.19204330
2
Properties=species:S:1:pos:R:3:forces:R:3 energy=-3.8175538308042753 pbc="F F F"
Ca       0.00000000       0.00000000       0.00000000       0.00000000       0.00000000     -22.48707581
Ca       0.00000000       0.00000000       1.59090909       0.00000000       0.00000000      22.48707581
2
Properties=species:S:1:pos:R:3:forces:R:3 energy=-4.9759838037385435 pbc="F F F"
Ca       0.00000000       0.00000000       0.00000000       0.00000000       0.00000000     -17.01458549
Ca       0.00000000       0.00000000       1.64969697       0.00000000       0.00000000      17.01458549
2
Properties=species:S:1:pos:R:3:forces:R:3 energy=-5.833549341595379 pbc="F F F"
Ca       0.00000000       0.00000000       0.00000000       0.00000000       0.00000000     -12.32404709
Ca       0.00000000       0.00000000       1.70848485       0.00000000       0.00000000      12.32404709
2
Properties=species:S:1:pos:R:3:forces:R:3 energy=-6.446127141401296 pbc="F F F"
Ca       0.00000000       0.00000000       0.00000000       0.00000000       0.00000000      -8.69933510
Ca       0.00000000       0.00000000       1.76727273       0.00000000       0.00000000       8.69933510
2
Properties=species:S:1:pos:R:3:forces:R:3 energy=-6.876454623711569 pbc="F F F"
Ca       0.00000000       0.00000000       0.00000000       0.00000000       0.00000000      -6.09308195
Ca       0.00000000       0.00000000       1.82606061       0.00000000       0.00000000       6.09308195
2
Properties=species:S:1:pos:R:3:forces:R:3 energy=-7.178075798174785 pbc="F F F"
Ca       0.00000000       0.00000000       0.00000000       0.00000000       0.00000000      -4.28256035
Ca       0.00000000       0.00000000       1.88484848       0.00000000       0.00000000       4.28256035
2
Properties=species:S:1:pos:R:3:forces:R:3 energy=-7.3916743604436785 pbc="F F F"
Ca       0.00000000       0.00000000       0.00000000       0.00000000       0.00000000      -3.07021451
Ca       0.00000000       0.00000000       1.94363636       0.00000000       0.00000000       3.07021451
2
Properties=species:S:1:pos:R:3:forces:R:3 energy=-7.5478012165591695 pbc="F F F"
Ca       0.00000000       0.00000000       0.00000000       0.00000000       0.00000000      -2.30504918
Ca       0.00000000       0.00000000       2.00242424       0.00000000       0.00000000       2.30504918
2
Properties=species:S:1:pos:R:3:forces:R:3 energy=-7.669182835794113 pbc="F F F"
Ca       0.00000000       0.00000000       0.00000000       0.00000000       0.00000000      -1.87269163
Ca       0.00000000       0.00000000       2.06121212       0.00000000       0.00000000       1.87269163
2
Properties=species:S:1:pos:R:3:forces:R:3 energy=-7.77308209993396 pbc="F F F"
Ca       0.00000000       0.00000000       0.00000000       0.00000000       0.00000000      -1.70134521
Ca       0.00000000       0.00000000       2.12000000       0.00000000       0.00000000       1.70134521
2
Properties=species:S:1:pos:R:3:forces:R:3 energy=-7.873410657041555 pbc="F F F"
Ca       0.00000000       0.00000000       0.00000000       0.00000000       0.00000000      -1.74352360
Ca       0.00000000       0.00000000       2.17878788       0.00000000       0.00000000       1.74352360
2
Properties=species:S:1:pos:R:3:forces:R:3 energy=-7.981200061912018 pbc="F F F"
Ca       0.00000000       0.00000000       0.00000000       0.00000000       0.00000000      -1.94424343
Ca       0.00000000       0.00000000       2.23757576       0.00000000       0.00000000       1.94424343
2
Properties=species:S:1:pos:R:3:forces:R:3 energy=-8.103669549924991 pbc="F F F"
Ca       0.00000000       0.00000000       0.00000000       0.00000000       0.00000000      -2.22972107
Ca       0.00000000       0.00000000       2.29636364       0.00000000       0.00000000       2.22972107
2
Properties=species:S:1:pos:R:3:forces:R:3 energy=-8.243495039345465 pbc="F F F"
Ca       0.00000000       0.00000000       0.00000000       0.00000000       0.00000000      -2.52275634
Ca       0.00000000       0.00000000       2.35515152       0.00000000       0.00000000       2.52275634
2
Properties=species:S:1:pos:R:3:forces:R:3 energy=-8.399250695203573 pbc="F F F"
Ca       0.00000000       0.00000000       0.00000000       0.00000000       0.00000000      -2.76395607
Ca       0.00000000       0.00000000       2.41393939       0.00000000       0.00000000       2.76395607
2
Properties=species:S:1:pos:R:3:forces:R:3 energy=-8.566811803220949 pbc="F F F"
Ca       0.00000000       0.00000000       0.00000000       0.00000000       0.00000000      -2.92133617
Ca       0.00000000       0.00000000       2.47272727       0.00000000       0.00000000       2.92133617
2
Properties=species:S:1:pos:R:3:forces:R:3 energy=-8.740927328073328 pbc="F F F"
Ca       0.00000000       0.00000000       0.00000000       0.00000000       0.00000000      -2.98730850
Ca       0.00000000       0.00000000       2.53151515       0.00000000       0.00000000       2.98730850
2
Properties=species:S:1:pos:R:3:forces:R:3 energy=-8.916405409761396 pbc="F F F"
Ca       0.00000000       0.00000000       0.00000000       0.00000000       0.00000000      -2.96978521
Ca       0.00000000       0.00000000       2.59030303       0.00000000       0.00000000       2.96978521
2
Properties=species:S:1:pos:R:3:forces:R:3 energy=-9.088761808292968 pbc="F F F"
Ca       0.00000000       0.00000000       0.00000000       0.00000000       0.00000000      -2.88384509
Ca       0.00000000       0.00000000       2.64909091       0.00000000       0.00000000       2.88384509
2
Properties=species:S:1:pos:R:3:forces:R:3 energy=-9.254470789720289 pbc="F F F"
Ca       0.00000000       0.00000000       0.00000000       0.00000000       0.00000000      -2.74656916
Ca       0.00000000       0.00000000       2.70787879       0.00000000       0.00000000       2.74656916
2
Properties=species:S:1:pos:R:3:forces:R:3 energy=-9.411012784513282 pbc="F F F"
Ca       0.00000000       0.00000000       0.00000000       0.00000000       0.00000000      -2.57468104
Ca       0.00000000       0.00000000       2.76666667       0.00000000       0.00000000       2.57468104
2
Properties=species:S:1:pos:R:3:forces:R:3 energy=-9.556809594726822 pbc="F F F"
Ca       0.00000000       0.00000000       0.00000000       0.00000000       0.00000000      -2.38323975
Ca       0.00000000       0.00000000       2.82545455       0.00000000       0.00000000       2.38323975
2
Properties=species:S:1:pos:R:3:forces:R:3 energy=-9.691081352356752 pbc="F F F"
Ca       0.00000000       0.00000000       0.00000000       0.00000000       0.00000000      -2.18434548
Ca       0.00000000       0.00000000       2.88424242       0.00000000       0.00000000       2.18434548
2
Properties=species:S:1:pos:R:3:forces:R:3 energy=-9.813650151129714 pbc="F F F"
Ca       0.00000000       0.00000000       0.00000000       0.00000000       0.00000000      -1.98599815
Ca       0.00000000       0.00000000       2.94303030       0.00000000       0.00000000       1.98599815
2
Properties=species:S:1:pos:R:3:forces:R:3 energy=-9.924669193493832 pbc="F F F"
Ca       0.00000000       0.00000000       0.00000000       0.00000000       0.00000000      -1.79177368
Ca       0.00000000       0.00000000       3.00181818       0.00000000       0.00000000       1.79177368
2
Properties=species:S:1:pos:R:3:forces:R:3 energy=-10.02440260272539 pbc="F F F"
Ca       0.00000000       0.00000000       0.00000000       0.00000000       0.00000000      -1.60176063
Ca       0.00000000       0.00000000       3.06060606       0.00000000       0.00000000       1.60176063
2
Properties=species:S:1:pos:R:3:forces:R:3 energy=-10.113047098502953 pbc="F F F"
Ca       0.00000000       0.00000000       0.00000000       0.00000000       0.00000000      -1.41426802
Ca       0.00000000       0.00000000       3.11939394       0.00000000       0.00000000       1.41426802
2
Properties=species:S:1:pos:R:3:forces:R:3 energy=-10.190698735515722 pbc="F F F"
Ca       0.00000000       0.00000000       0.00000000       0.00000000       0.00000000      -1.22744858
Ca       0.00000000       0.00000000       3.17818182       0.00000000       0.00000000       1.22744858
2
Properties=species:S:1:pos:R:3:forces:R:3 energy=-10.257356600951368 pbc="F F F"
Ca       0.00000000       0.00000000       0.00000000       0.00000000       0.00000000      -1.04023910
Ca       0.00000000       0.00000000       3.23696970       0.00000000       0.00000000       1.04023910
2
Properties=species:S:1:pos:R:3:forces:R:3 energy=-10.313002169037095 pbc="F F F"
Ca       0.00000000       0.00000000       0.00000000       0.00000000       0.00000000      -0.85294741
Ca       0.00000000       0.00000000       3.29575758       0.00000000       0.00000000       0.85294741
2
Properties=species:S:1:pos:R:3:forces:R:3 energy=-10.357681991936813 pbc="F F F"
Ca       0.00000000       0.00000000       0.00000000       0.00000000       0.00000000      -0.66774738
Ca       0.00000000       0.00000000       3.35454545       0.00000000       0.00000000       0.66774738
2
Properties=species:S:1:pos:R:3:forces:R:3 energy=-10.3916364362804 pbc="F F F"
Ca       0.00000000       0.00000000       0.00000000       0.00000000       0.00000000      -0.48889565
Ca       0.00000000       0.00000000       3.41333333       0.00000000       0.00000000       0.48889565
2
Properties=species:S:1:pos:R:3:forces:R:3 energy=-10.415403567139906 pbc="F F F"
Ca       0.00000000       0.00000000       0.00000000       0.00000000       0.00000000      -0.32225451
Ca       0.00000000       0.00000000       3.47212121       0.00000000       0.00000000       0.32225451
2
Properties=species:S:1:pos:R:3:forces:R:3 energy=-10.429889846641872 pbc="F F F"
Ca       0.00000000       0.00000000       0.00000000       0.00000000       0.00000000      -0.17414293
Ca       0.00000000       0.00000000       3.53090909       0.00000000       0.00000000       0.17414293
2
Properties=species:S:1:pos:R:3:forces:R:3 energy=-10.4363460987124 pbc="F F F"
Ca       0.00000000       0.00000000       0.00000000       0.00000000       0.00000000      -0.04982128
Ca       0.00000000       0.00000000       3.58969697       0.00000000       0.00000000       0.04982128
2
Properties=species:S:1:pos:R:3:forces:R:3 energy=-10.436272052626812 pbc="F F F"
Ca       0.00000000       0.00000000       0.00000000       0.00000000       0.00000000       0.04780598
Ca       0.00000000       0.00000000       3.64848485       0.00000000       0.00000000      -0.04780598
2
Properties=species:S:1:pos:R:3:forces:R:3 energy=-10.431247972999893 pbc="F F F"
Ca       0.00000000       0.00000000       0.00000000       0.00000000       0.00000000       0.11888434
Ca       0.00000000       0.00000000       3.70727273       0.00000000       0.00000000      -0.11888434
2
Properties=species:S:1:pos:R:3:forces:R:3 energy=-10.422756458105832 pbc="F F F"
Ca       0.00000000       0.00000000       0.00000000       0.00000000       0.00000000       0.16648056
Ca       0.00000000       0.00000000       3.76606061       0.00000000       0.00000000      -0.16648056
2
Properties=species:S:1:pos:R:3:forces:R:3 energy=-10.41203515175405 pbc="F F F"
Ca       0.00000000       0.00000000       0.00000000       0.00000000       0.00000000       0.19569635
Ca       0.00000000       0.00000000       3.82484848       0.00000000       0.00000000      -0.19569635
2
Properties=species:S:1:pos:R:3:forces:R:3 energy=-10.399990265885462 pbc="F F F"
Ca       0.00000000       0.00000000       0.00000000       0.00000000       0.00000000       0.21246953
Ca       0.00000000       0.00000000       3.88363636       0.00000000       0.00000000      -0.21246953
2
Properties=species:S:1:pos:R:3:forces:R:3 energy=-10.387183791435053 pbc="F F F"
Ca       0.00000000       0.00000000       0.00000000       0.00000000       0.00000000       0.22257175
Ca       0.00000000       0.00000000       3.94242424       0.00000000       0.00000000      -0.22257175
2
Properties=species:S:1:pos:R:3:forces:R:3 energy=-10.373850618739777 pbc="F F F"
Ca       0.00000000       0.00000000       0.00000000       0.00000000       0.00000000       0.23117802
Ca       0.00000000       0.00000000       4.00121212       0.00000000       0.00000000      -0.23117802
2
Properties=species:S:1:pos:R:3:forces:R:3 energy=-10.359946125028431 pbc="F F F"
Ca       0.00000000       0.00000000       0.00000000       0.00000000       0.00000000       0.24263422
Ca       0.00000000       0.00000000       4.06000000       0.00000000       0.00000000      -0.24263422
2
Properties=species:S:1:pos:R:3:forces:R:3 energy=-10.34521089365357 pbc="F F F"
Ca       0.00000000       0.00000000       0.00000000       0.00000000       0.00000000       0.25969094
Ca       0.00000000       0.00000000       4.11878788       0.00000000       0.00000000      -0.25969094
2
Properties=species:S:1:pos:R:3:forces:R:3 energy=-10.329300588769657 pbc="F F F"
Ca       0.00000000       0.00000000       0.00000000       0.00000000       0.00000000       0.28235286
Ca       0.00000000       0.00000000       4.17757576       0.00000000       0.00000000      -0.28235286
2
Properties=species:S:1:pos:R:3:forces:R:3 energy=-10.31195726557527 pbc="F F F"
Ca       0.00000000       0.00000000       0.00000000       0.00000000       0.00000000       0.30781996
Ca       0.00000000       0.00000000       4.23636364       0.00000000       0.00000000      -0.30781996
2
Properties=species:S:1:pos:R:3:forces:R:3 energy=-10.293134955701719 pbc="F F F"
Ca       0.00000000       0.00000000       0.00000000       0.00000000       0.00000000       0.33191270
Ca       0.00000000       0.00000000       4.29515152       0.00000000       0.00000000      -0.33191270
2
Properties=species:S:1:pos:R:3:forces:R:3 energy=-10.273038197971736 pbc="F F F"
Ca       0.00000000       0.00000000       0.00000000       0.00000000       0.00000000       0.35063747
Ca       0.00000000       0.00000000       4.35393939       0.00000000       0.00000000      -0.35063747
2
Properties=species:S:1:pos:R:3:forces:R:3 energy=-10.252074466095321 pbc="F F F"
Ca       0.00000000       0.00000000       0.00000000       0.00000000       0.00000000       0.36094552
Ca       0.00000000       0.00000000       4.41272727       0.00000000       0.00000000      -0.36094552
2
Properties=species:S:1:pos:R:3:forces:R:3 energy=-10.23080084184223 pbc="F F F"
Ca       0.00000000       0.00000000       0.00000000       0.00000000       0.00000000       0.36100933
Ca       0.00000000       0.00000000       4.47151515       0.00000000       0.00000000      -0.36100933
2
Properties=species:S:1:pos:R:3:forces:R:3 energy=-10.20983963524522 pbc="F F F"
Ca       0.00000000       0.00000000       0.00000000       0.00000000       0.00000000       0.35037643
Ca       0.00000000       0.00000000       4.53030303       0.00000000       0.00000000      -0.35037643
2
Properties=species:S:1:pos:R:3:forces:R:3 energy=-10.189796841413592 pbc="F F F"
Ca       0.00000000       0.00000000       0.00000000       0.00000000       0.00000000       0.33003765
Ca       0.00000000       0.00000000       4.58909091       0.00000000       0.00000000      -0.33003765
2
Properties=species:S:1:pos:R:3:forces:R:3 energy=-10.171181455027268 pbc="F F F"
Ca       0.00000000       0.00000000       0.00000000       0.00000000       0.00000000       0.30226123
Ca       0.00000000       0.00000000       4.64787879       0.00000000       0.00000000      -0.30226123
2
Properties=species:S:1:pos:R:3:forces:R:3 energy=-10.154342476667217 pbc="F F F"
Ca       0.00000000       0.00000000       0.00000000       0.00000000       0.00000000       0.27014548
Ca       0.00000000       0.00000000       4.70666667       0.00000000       0.00000000      -0.27014548
2
Properties=species:S:1:pos:R:3:forces:R:3 energy=-10.13943995998162 pbc="F F F"
Ca       0.00000000       0.00000000       0.00000000       0.00000000       0.00000000       0.23695365
Ca       0.00000000       0.00000000       4.76545455       0.00000000       0.00000000      -0.23695365
2
Properties=species:S:1:pos:R:3:forces:R:3 energy=-10.126450777761574 pbc="F F F"
Ca       0.00000000       0.00000000       0.00000000       0.00000000       0.00000000       0.20537288
Ca       0.00000000       0.00000000       4.82424242       0.00000000       0.00000000      -0.20537288
2
Properties=species:S:1:pos:R:3:forces:R:3 energy=-10.115229064394898 pbc="F F F"
Ca       0.00000000       0.00000000       0.00000000       0.00000000       0.00000000       0.17703481
Ca       0.00000000       0.00000000       4.88303030       0.00000000       0.00000000      -0.17703481
2
Properties=species:S:1:pos:R:3:forces:R:3 energy=-10.105563404487057 pbc="F F F"
Ca       0.00000000       0.00000000       0.00000000       0.00000000       0.00000000       0.15237576
Ca       0.00000000       0.00000000       4.94181818       0.00000000       0.00000000      -0.15237576
2
Properties=species:S:1:pos:R:3:forces:R:3 energy=-10.097245972585256 pbc="F F F"
Ca       0.00000000       0.00000000       0.00000000       0.00000000       0.00000000       0.13106959
Ca       0.00000000       0.00000000       5.00060606       0.00000000       0.00000000      -0.13106959
2
Properties=species:S:1:pos:R:3:forces:R:3 energy=-10.090092186376223 pbc="F F F"
Ca       0.00000000       0.00000000       0.00000000       0.00000000       0.00000000       0.11283391
Ca       0.00000000       0.00000000       5.05939394       0.00000000       0.00000000      -0.11283391
2
Properties=species:S:1:pos:R:3:forces:R:3 energy=-10.083906491620244 pbc="F F F"
Ca       0.00000000       0.00000000       0.00000000       0.00000000       0.00000000       0.09840914
Ca       0.00000000       0.00000000       5.11818182       0.00000000       0.00000000      -0.09840914
2
Properties=species:S:1:pos:R:3:forces:R:3 energy=-10.07840244041008 pbc="F F F"
Ca       0.00000000       0.00000000       0.00000000       0.00000000       0.00000000       0.09014260
Ca       0.00000000       0.00000000       5.17696970       0.00000000       0.00000000      -0.09014260
2
Properties=species:S:1:pos:R:3:forces:R:3 energy=-10.073124664107251 pbc="F F F"
Ca       0.00000000       0.00000000       0.00000000       0.00000000       0.00000000       0.09118485
Ca       0.00000000       0.00000000       5.23575758       0.00000000       0.00000000      -0.09118485
2
Properties=species:S:1:pos:R:3:forces:R:3 energy=-10.067478494266638 pbc="F F F"
Ca       0.00000000       0.00000000       0.00000000       0.00000000       0.00000000       0.10237315
Ca       0.00000000       0.00000000       5.29454545       0.00000000       0.00000000      -0.10237315
2
Properties=species:S:1:pos:R:3:forces:R:3 energy=-10.060992257919537 pbc="F F F"
Ca       0.00000000       0.00000000       0.00000000       0.00000000       0.00000000       0.11826095
Ca       0.00000000       0.00000000       5.35333333       0.00000000       0.00000000      -0.11826095
2
Properties=species:S:1:pos:R:3:forces:R:3 energy=-10.053660616166681 pbc="F F F"
Ca       0.00000000       0.00000000       0.00000000       0.00000000       0.00000000       0.13004187
Ca       0.00000000       0.00000000       5.41212121       0.00000000       0.00000000      -0.13004187
2
Properties=species:S:1:pos:R:3:forces:R:3 energy=-10.045751114011823 pbc="F F F"
Ca       0.00000000       0.00000000       0.00000000       0.00000000       0.00000000       0.13995567
Ca       0.00000000       0.00000000       5.47090909       0.00000000       0.00000000      -0.13995567
2
Properties=species:S:1:pos:R:3:forces:R:3 energy=-10.036953350816042 pbc="F F F"
Ca       0.00000000       0.00000000       0.00000000       0.00000000       0.00000000       0.16171704
Ca       0.00000000       0.00000000       5.52969697       0.00000000       0.00000000      -0.16171704
2
Properties=species:S:1:pos:R:3:forces:R:3 energy=-10.026669971341489 pbc="F F F"
Ca       0.00000000       0.00000000       0.00000000       0.00000000       0.00000000       0.18628307
Ca       0.00000000       0.00000000       5.58848485       0.00000000       0.00000000      -0.18628307
2
Properties=species:S:1:pos:R:3:forces:R:3 energy=-10.015412797433267 pbc="F F F"
Ca       0.00000000       0.00000000       0.00000000       0.00000000       0.00000000       0.19418724
Ca       0.00000000       0.00000000       5.64727273       0.00000000       0.00000000      -0.19418724
2
Properties=species:S:1:pos:R:3:forces:R:3 energy=-10.003802426829356 pbc="F F F"
Ca       0.00000000       0.00000000       0.00000000       0.00000000       0.00000000       0.20464896
Ca       0.00000000       0.00000000       5.70606061       0.00000000       0.00000000      -0.20464896
2
Properties=species:S:1:pos:R:3:forces:R:3 energy=-9.990712373437404 pbc="F F F"
Ca       0.00000000       0.00000000       0.00000000       0.00000000       0.00000000       0.24331744
Ca       0.00000000       0.00000000       5.76484848       0.00000000       0.00000000      -0.24331744
2
Properties=species:S:1:pos:R:3:forces:R:3 energy=-9.97563039345256 pbc="F F F"
Ca       0.00000000       0.00000000       0.00000000       0.00000000       0.00000000       0.25830460
Ca       0.00000000       0.00000000       5.82363636       0.00000000       0.00000000      -0.25830460
2
Properties=species:S:1:pos:R:3:forces:R:3 energy=-9.962343384713577 pbc="F F F"
Ca       0.00000000       0.00000000       0.00000000       0.00000000       0.00000000       0.17961806
Ca       0.00000000       0.00000000       5.88242424       0.00000000       0.00000000      -0.17961806
2
Properties=species:S:1:pos:R:3:forces:R:3 energy=-9.955276281687283 pbc="F F F"
Ca       0.00000000       0.00000000       0.00000000       0.00000000       0.00000000       0.06321167
Ca       0.00000000       0.00000000       5.94121212       0.00000000       0.00000000      -0.06321167
2
Properties=species:S:1:pos:R:3:forces:R:3 energy=-9.953546849780105 pbc="F F F"
Ca       0.00000000       0.00000000       0.00000000       0.00000000       0.00000000       0.01232663
Ca       0.00000000       0.00000000       6.00000000       0.00000000       0.00000000      -0.01232663
