2
Properties=species:S:1:pos:R:3:forces:R:3 energy=4936.389579633831 pbc="F F F"
Cu       0.00000000       0.00000000       0.00000000       0.00000000       0.00000000  -62499.70703125
Cu       0.00000000       0.00000000       0.18000000       0.00000000       0.00000000   62499.70703125
2
Properties=species:S:1:pos:R:3:forces:R:3 energy=2665.932060102581 pbc="F F F"
Cu       0.00000000       0.00000000       0.00000000       0.00000000       0.00000000  -22707.44531250
Cu       0.00000000       0.00000000       0.23878788       0.00000000       0.00000000   22707.44531250
2
Properties=species:S:1:pos:R:3:forces:R:3 energy=1770.723808149456 pbc="F F F"
Cu       0.00000000       0.00000000       0.00000000       0.00000000       0.00000000   -9916.05664062
Cu       0.00000000       0.00000000       0.29757576       0.00000000       0.00000000    9916.05664062
2
Properties=species:S:1:pos:R:3:forces:R:3 energy=1346.676200727581 pbc="F F F"
Cu       0.00000000       0.00000000       0.00000000       0.00000000       0.00000000   -5312.34960938
Cu       0.00000000       0.00000000       0.35636364       0.00000000       0.00000000    5312.34960938
2
Properties=species:S:1:pos:R:3:forces:R:3 energy=1080.1536177205605 pbc="F F F"
Cu       0.00000000       0.00000000       0.00000000       0.00000000       0.00000000   -4142.66943359
Cu       0.00000000       0.00000000       0.41515152       0.00000000       0.00000000    4142.66943359
2
Properties=species:S:1:pos:R:3:forces:R:3 energy=831.6208418424462 pbc="F F F"
Cu       0.00000000       0.00000000       0.00000000       0.00000000       0.00000000   -4361.04296875
Cu       0.00000000       0.00000000       0.47393939       0.00000000       0.00000000    4361.04296875
2
Properties=species:S:1:pos:R:3:forces:R:3 energy=572.0034712393534 pbc="F F F"
Cu       0.00000000       0.00000000       0.00000000       0.00000000       0.00000000   -4652.42675781
Cu       0.00000000       0.00000000       0.53272727       0.00000000       0.00000000    4652.42675781
2
Properties=species:S:1:pos:R:3:forces:R:3 energy=324.0428999534587 pbc="F F F"
Cu       0.00000000       0.00000000       0.00000000       0.00000000       0.00000000   -3726.98901367
Cu       0.00000000       0.00000000       0.59151515       0.00000000       0.00000000    3726.98901367
2
Properties=species:S:1:pos:R:3:forces:R:3 energy=151.86453997444278 pbc="F F F"
Cu       0.00000000       0.00000000       0.00000000       0.00000000       0.00000000   -2268.14794922
Cu       0.00000000       0.00000000       0.65030303       0.00000000       0.00000000    2268.14794922
2
Properties=species:S:1:pos:R:3:forces:R:3 energy=66.89474475610349 pbc="F F F"
Cu       0.00000000       0.00000000       0.00000000       0.00000000       0.00000000    -447.03781128
Cu       0.00000000       0.00000000       0.70909091       0.00000000       0.00000000     447.03781128
2
Properties=species:S:1:pos:R:3:forces:R:3 energy=52.87367238187142 pbc="F F F"
Cu       0.00000000       0.00000000       0.00000000       0.00000000       0.00000000      -5.74260187
Cu       0.00000000       0.00000000       0.76787879       0.00000000       0.00000000       5.74260187
2
Properties=species:S:1:pos:R:3:forces:R:3 energy=54.40978995538125 pbc="F F F"
Cu       0.00000000       0.00000000       0.00000000       0.00000000       0.00000000     -19.21864319
Cu       0.00000000       0.00000000       0.82666667       0.00000000       0.00000000      19.21864319
2
Properties=species:S:1:pos:R:3:forces:R:3 energy=49.3054694577686 pbc="F F F"
Cu       0.00000000       0.00000000       0.00000000       0.00000000       0.00000000    -133.68350220
Cu       0.00000000       0.00000000       0.88545455       0.00000000       0.00000000     133.68350220
2
Properties=species:S:1:pos:R:3:forces:R:3 energy=43.343940720082166 pbc="F F F"
Cu       0.00000000       0.00000000       0.00000000       0.00000000       0.00000000     -45.69855499
Cu       0.00000000       0.00000000       0.94424242       0.00000000       0.00000000      45.69855499
2
Properties=species:S:1:pos:R:3:forces:R:3 energy=40.79154590699178 pbc="F F F"
Cu       0.00000000       0.00000000       0.00000000       0.00000000       0.00000000     -67.42015076
Cu       0.00000000       0.00000000       1.00303030       0.00000000       0.00000000      67.42015076
2
Properties=species:S:1:pos:R:3:forces:R:3 energy=34.89893733806552 pbc="F F F"
Cu       0.00000000       0.00000000       0.00000000       0.00000000       0.00000000    -127.16674805
Cu       0.00000000       0.00000000       1.06181818       0.00000000       0.00000000     127.16674805
2
Properties=species:S:1:pos:R:3:forces:R:3 energy=26.669544429313003 pbc="F F F"
Cu       0.00000000       0.00000000       0.00000000       0.00000000       0.00000000    -146.51983643
Cu       0.00000000       0.00000000       1.12060606       0.00000000       0.00000000     146.51983643
2
Properties=species:S:1:pos:R:3:forces:R:3 energy=18.23236117510698 pbc="F F F"
Cu       0.00000000       0.00000000       0.00000000       0.00000000       0.00000000    -137.23826599
Cu       0.00000000       0.00000000       1.17939394       0.00000000       0.00000000     137.23826599
2
Properties=species:S:1:pos:R:3:forces:R:3 energy=10.769881746880191 pbc="F F F"
Cu       0.00000000       0.00000000       0.00000000       0.00000000       0.00000000    -115.64824677
Cu       0.00000000       0.00000000       1.23818182       0.00000000       0.00000000     115.64824677
2
Properties=species:S:1:pos:R:3:forces:R:3 energy=4.677325954616683 pbc="F F F"
Cu       0.00000000       0.00000000       0.00000000       0.00000000       0.00000000     -91.74363708
Cu       0.00000000       0.00000000       1.29696970       0.00000000       0.00000000      91.74363708
2
Properties=species:S:1:pos:R:3:forces:R:3 energy=-0.07683466666438123 pbc="F F F"
Cu       0.00000000       0.00000000       0.00000000       0.00000000       0.00000000     -70.81519318
Cu       0.00000000       0.00000000       1.35575758       0.00000000       0.00000000      70.81519318
2
Properties=species:S:1:pos:R:3:forces:R:3 energy=-3.7562967740319837 pbc="F F F"
Cu       0.00000000       0.00000000       0.00000000       0.00000000       0.00000000     -55.22903824
Cu       0.00000000       0.00000000       1.41454545       0.00000000       0.00000000      55.22903824
2
Properties=species:S:1:pos:R:3:forces:R:3 energy=-6.6542064914055095 pbc="F F F"
Cu       0.00000000       0.00000000       0.00000000       0.00000000       0.00000000     -43.91218185
Cu       0.00000000       0.00000000       1.47333333       0.00000000       0.00000000      43.91218185
2
Properties=species:S:1:pos:R:3:forces:R:3 energy=-8.969213210962863 pbc="F F F"
Cu       0.00000000       0.00000000       0.00000000       0.00000000       0.00000000     -35.16998291
Cu       0.00000000       0.00000000       1.53212121       0.00000000       0.00000000      35.16998291
2
Properties=species:S:1:pos:R:3:forces:R:3 energy=-10.819653596792072 pbc="F F F"
Cu       0.00000000       0.00000000       0.00000000       0.00000000       0.00000000     -27.99086952
Cu       0.00000000       0.00000000       1.59090909       0.00000000       0.00000000      27.99086952
2
Properties=species:S:1:pos:R:3:forces:R:3 energy=-12.281053874501596 pbc="F F F"
Cu       0.00000000       0.00000000       0.00000000       0.00000000       0.00000000     -21.88337517
Cu       0.00000000       0.00000000       1.64969697       0.00000000       0.00000000      21.88337517
2
Properties=species:S:1:pos:R:3:forces:R:3 energy=-13.410139538186039 pbc="F F F"
Cu       0.00000000       0.00000000       0.00000000       0.00000000       0.00000000     -16.67580795
Cu       0.00000000       0.00000000       1.70848485       0.00000000       0.00000000      16.67580795
2
Properties=species:S:1:pos:R:3:forces:R:3 energy=-14.258930663158278 pbc="F F F"
Cu       0.00000000       0.00000000       0.00000000       0.00000000       0.00000000     -12.34477520
Cu       0.00000000       0.00000000       1.76727273       0.00000000       0.00000000      12.34477520
2
Properties=species:S:1:pos:R:3:forces:R:3 energy=-14.877838495958306 pbc="F F F"
Cu       0.00000000       0.00000000       0.00000000       0.00000000       0.00000000      -8.84117699
Cu       0.00000000       0.00000000       1.82606061       0.00000000       0.00000000       8.84117699
2
Properties=species:S:1:pos:R:3:forces:R:3 energy=-15.312668076567599 pbc="F F F"
Cu       0.00000000       0.00000000       0.00000000       0.00000000       0.00000000      -6.06380463
Cu       0.00000000       0.00000000       1.88484848       0.00000000       0.00000000       6.06380463
2
Properties=species:S:1:pos:R:3:forces:R:3 energy=-15.602995103729537 pbc="F F F"
Cu       0.00000000       0.00000000       0.00000000       0.00000000       0.00000000      -3.90955830
Cu       0.00000000       0.00000000       1.94363636       0.00000000       0.00000000       3.90955830
2
Properties=species:S:1:pos:R:3:forces:R:3 energy=-15.782887911548386 pbc="F F F"
Cu       0.00000000       0.00000000       0.00000000       0.00000000       0.00000000      -2.29399657
Cu       0.00000000       0.00000000       2.00242424       0.00000000       0.00000000       2.29399657
2
Properties=species:S:1:pos:R:3:forces:R:3 energy=-15.881806862773264 pbc="F F F"
Cu       0.00000000       0.00000000       0.00000000       0.00000000       0.00000000      -1.14247823
Cu       0.00000000       0.00000000       2.06121212       0.00000000       0.00000000       1.14247823
2
Properties=species:S:1:pos:R:3:forces:R:3 energy=-15.924815206648685 pbc="F F F"
Cu       0.00000000       0.00000000       0.00000000       0.00000000       0.00000000      -0.37857690
Cu       0.00000000       0.00000000       2.12000000       0.00000000       0.00000000       0.37857690
2
Properties=species:S:1:pos:R:3:forces:R:3 energy=-15.932298924372876 pbc="F F F"
Cu       0.00000000       0.00000000       0.00000000       0.00000000       0.00000000       0.08029968
Cu       0.00000000       0.00000000       2.17878788       0.00000000       0.00000000      -0.08029968
2
Properties=species:S:1:pos:R:3:forces:R:3 energy=-15.919667669756267 pbc="F F F"
Cu       0.00000000       0.00000000       0.00000000       0.00000000       0.00000000       0.31986836
Cu       0.00000000       0.00000000       2.23757576       0.00000000       0.00000000      -0.31986836
2
Properties=species:S:1:pos:R:3:forces:R:3 energy=-15.897394709341343 pbc="F F F"
Cu       0.00000000       0.00000000       0.00000000       0.00000000       0.00000000       0.42093891
Cu       0.00000000       0.00000000       2.29636364       0.00000000       0.00000000      -0.42093891
2
Properties=species:S:1:pos:R:3:forces:R:3 energy=-15.871554636798242 pbc="F F F"
Cu       0.00000000       0.00000000       0.00000000       0.00000000       0.00000000       0.45107159
Cu       0.00000000       0.00000000       2.35515152       0.00000000       0.00000000      -0.45107159
2
Properties=species:S:1:pos:R:3:forces:R:3 energy=-15.844755994490805 pbc="F F F"
Cu       0.00000000       0.00000000       0.00000000       0.00000000       0.00000000       0.46038502
Cu       0.00000000       0.00000000       2.41393939       0.00000000       0.00000000      -0.46038502
2
Properties=species:S:1:pos:R:3:forces:R:3 energy=-15.81717676926824 pbc="F F F"
Cu       0.00000000       0.00000000       0.00000000       0.00000000       0.00000000       0.48184031
Cu       0.00000000       0.00000000       2.47272727       0.00000000       0.00000000      -0.48184031
2
Properties=species:S:1:pos:R:3:forces:R:3 energy=-15.787504130383773 pbc="F F F"
Cu       0.00000000       0.00000000       0.00000000       0.00000000       0.00000000       0.53347129
Cu       0.00000000       0.00000000       2.53151515       0.00000000       0.00000000      -0.53347129
2
Properties=species:S:1:pos:R:3:forces:R:3 energy=-15.75373892243361 pbc="F F F"
Cu       0.00000000       0.00000000       0.00000000       0.00000000       0.00000000       0.62129265
Cu       0.00000000       0.00000000       2.59030303       0.00000000       0.00000000      -0.62129265
2
Properties=species:S:1:pos:R:3:forces:R:3 energy=-15.713784987361269 pbc="F F F"
Cu       0.00000000       0.00000000       0.00000000       0.00000000       0.00000000       0.74316907
Cu       0.00000000       0.00000000       2.64909091       0.00000000       0.00000000      -0.74316907
2
Properties=species:S:1:pos:R:3:forces:R:3 energy=-15.665831419514138 pbc="F F F"
Cu       0.00000000       0.00000000       0.00000000       0.00000000       0.00000000       0.89179963
Cu       0.00000000       0.00000000       2.70787879       0.00000000       0.00000000      -0.89179963
2
Properties=species:S:1:pos:R:3:forces:R:3 energy=-15.608681337064686 pbc="F F F"
Cu       0.00000000       0.00000000       0.00000000       0.00000000       0.00000000       1.05289543
Cu       0.00000000       0.00000000       2.76666667       0.00000000       0.00000000      -1.05289543
2
Properties=species:S:1:pos:R:3:forces:R:3 energy=-15.542225714197611 pbc="F F F"
Cu       0.00000000       0.00000000       0.00000000       0.00000000       0.00000000       1.20432067
Cu       0.00000000       0.00000000       2.82545455       0.00000000       0.00000000      -1.20432067
2
Properties=species:S:1:pos:R:3:forces:R:3 energy=-15.467723197398378 pbc="F F F"
Cu       0.00000000       0.00000000       0.00000000       0.00000000       0.00000000       1.32325578
Cu       0.00000000       0.00000000       2.88424242       0.00000000       0.00000000      -1.32325578
2
Properties=species:S:1:pos:R:3:forces:R:3 energy=-15.38759759650006 pbc="F F F"
Cu       0.00000000       0.00000000       0.00000000       0.00000000       0.00000000       1.39378679
Cu       0.00000000       0.00000000       2.94303030       0.00000000       0.00000000      -1.39378679
2
Properties=species:S:1:pos:R:3:forces:R:3 energy=-15.30490814020917 pbc="F F F"
Cu       0.00000000       0.00000000       0.00000000       0.00000000       0.00000000       1.41059947
Cu       0.00000000       0.00000000       3.00181818       0.00000000       0.00000000      -1.41059947
2
Properties=species:S:1:pos:R:3:forces:R:3 energy=-15.222690746333404 pbc="F F F"
Cu       0.00000000       0.00000000       0.00000000       0.00000000       0.00000000       1.37949502
Cu       0.00000000       0.00000000       3.06060606       0.00000000       0.00000000      -1.37949502
2
Properties=species:S:1:pos:R:3:forces:R:3 energy=-15.143381360850682 pbc="F F F"
Cu       0.00000000       0.00000000       0.00000000       0.00000000       0.00000000       1.31442332
Cu       0.00000000       0.00000000       3.11939394       0.00000000       0.00000000      -1.31442332
2
Properties=species:S:1:pos:R:3:forces:R:3 energy=-15.068482567549188 pbc="F F F"
Cu       0.00000000       0.00000000       0.00000000       0.00000000       0.00000000       1.23207486
Cu       0.00000000       0.00000000       3.17818182       0.00000000       0.00000000      -1.23207486
2
Properties=species:S:1:pos:R:3:forces:R:3 energy=-14.99857383118758 pbc="F F F"
Cu       0.00000000       0.00000000       0.00000000       0.00000000       0.00000000       1.14671612
Cu       0.00000000       0.00000000       3.23696970       0.00000000       0.00000000      -1.14671612
2
Properties=species:S:1:pos:R:3:forces:R:3 energy=-14.933532293922559 pbc="F F F"
Cu       0.00000000       0.00000000       0.00000000       0.00000000       0.00000000       1.06758952
Cu       0.00000000       0.00000000       3.29575758       0.00000000       0.00000000      -1.06758952
2
Properties=species:S:1:pos:R:3:forces:R:3 energy=-14.872840712798933 pbc="F F F"
Cu       0.00000000       0.00000000       0.00000000       0.00000000       0.00000000       0.99909711
Cu       0.00000000       0.00000000       3.35454545       0.00000000       0.00000000      -0.99909711
2
Properties=species:S:1:pos:R:3:forces:R:3 energy=-14.815828808883895 pbc="F F F"
Cu       0.00000000       0.00000000       0.00000000       0.00000000       0.00000000       0.94245929
Cu       0.00000000       0.00000000       3.41333333       0.00000000       0.00000000      -0.94245929
2
Properties=species:S:1:pos:R:3:forces:R:3 energy=-14.761803528470544 pbc="F F F"
Cu       0.00000000       0.00000000       0.00000000       0.00000000       0.00000000       0.89735770
Cu       0.00000000       0.00000000       3.47212121       0.00000000       0.00000000      -0.89735770
2
Properties=species:S:1:pos:R:3:forces:R:3 energy=-14.710113279797948 pbc="F F F"
Cu       0.00000000       0.00000000       0.00000000       0.00000000       0.00000000       0.86287439
Cu       0.00000000       0.00000000       3.53090909       0.00000000       0.00000000      -0.86287439
2
Properties=species:S:1:pos:R:3:forces:R:3 energy=-14.660168116227045 pbc="F F F"
Cu       0.00000000       0.00000000       0.00000000       0.00000000       0.00000000       0.83769816
Cu       0.00000000       0.00000000       3.58969697       0.00000000       0.00000000      -0.83769816
2
Properties=species:S:1:pos:R:3:forces:R:3 energy=-14.611471369052005 pbc="F F F"
Cu       0.00000000       0.00000000       0.00000000       0.00000000       0.00000000       0.82006979
Cu       0.00000000       0.00000000       3.64848485       0.00000000       0.00000000      -0.82006979
2
Properties=species:S:1:pos:R:3:forces:R:3 energy=-14.563643528163961 pbc="F F F"
Cu       0.00000000       0.00000000       0.00000000       0.00000000       0.00000000       0.80776668
Cu       0.00000000       0.00000000       3.70727273       0.00000000       0.00000000      -0.80776668
2
Properties=species:S:1:pos:R:3:forces:R:3 energy=-14.516442323856594 pbc="F F F"
Cu       0.00000000       0.00000000       0.00000000       0.00000000       0.00000000       0.79829133
Cu       0.00000000       0.00000000       3.76606061       0.00000000       0.00000000      -0.79829133
2
Properties=species:S:1:pos:R:3:forces:R:3 energy=-14.469777082626026 pbc="F F F"
Cu       0.00000000       0.00000000       0.00000000       0.00000000       0.00000000       0.78919333
Cu       0.00000000       0.00000000       3.82484848       0.00000000       0.00000000      -0.78919333
2
Properties=species:S:1:pos:R:3:forces:R:3 energy=-14.423686795829363 pbc="F F F"
Cu       0.00000000       0.00000000       0.00000000       0.00000000       0.00000000       0.77833778
Cu       0.00000000       0.00000000       3.88363636       0.00000000       0.00000000      -0.77833778
2
Properties=species:S:1:pos:R:3:forces:R:3 energy=-14.378329648274153 pbc="F F F"
Cu       0.00000000       0.00000000       0.00000000       0.00000000       0.00000000       0.76409966
Cu       0.00000000       0.00000000       3.94242424       0.00000000       0.00000000      -0.76409966
2
Properties=species:S:1:pos:R:3:forces:R:3 energy=-14.333936324606837 pbc="F F F"
Cu       0.00000000       0.00000000       0.00000000       0.00000000       0.00000000       0.74539924
Cu       0.00000000       0.00000000       4.00121212       0.00000000       0.00000000      -0.74539924
2
Properties=species:S:1:pos:R:3:forces:R:3 energy=-14.290788055796536 pbc="F F F"
Cu       0.00000000       0.00000000       0.00000000       0.00000000       0.00000000       0.72162050
Cu       0.00000000       0.00000000       4.06000000       0.00000000       0.00000000      -0.72162050
2
Properties=species:S:1:pos:R:3:forces:R:3 energy=-14.24919566997831 pbc="F F F"
Cu       0.00000000       0.00000000       0.00000000       0.00000000       0.00000000       0.69251794
Cu       0.00000000       0.00000000       4.11878788       0.00000000       0.00000000      -0.69251794
2
Properties=species:S:1:pos:R:3:forces:R:3 energy=-14.209469070123301 pbc="F F F"
Cu       0.00000000       0.00000000       0.00000000       0.00000000       0.00000000       0.65808463
Cu       0.00000000       0.00000000       4.17757576       0.00000000       0.00000000      -0.65808463
2
Properties=species:S:1:pos:R:3:forces:R:3 energy=-14.1719201109008 pbc="F F F"
Cu       0.00000000       0.00000000       0.00000000       0.00000000       0.00000000       0.61851352
Cu       0.00000000       0.00000000       4.23636364       0.00000000       0.00000000      -0.61851352
2
Properties=species:S:1:pos:R:3:forces:R:3 energy=-14.136840659417222 pbc="F F F"
Cu       0.00000000       0.00000000       0.00000000       0.00000000       0.00000000       0.57417512
Cu       0.00000000       0.00000000       4.29515152       0.00000000       0.00000000      -0.57417512
2
Properties=species:S:1:pos:R:3:forces:R:3 energy=-14.104494039073764 pbc="F F F"
Cu       0.00000000       0.00000000       0.00000000       0.00000000       0.00000000       0.52568465
Cu       0.00000000       0.00000000       4.35393939       0.00000000       0.00000000      -0.52568465
2
Properties=species:S:1:pos:R:3:forces:R:3 energy=-14.075097841253937 pbc="F F F"
Cu       0.00000000       0.00000000       0.00000000       0.00000000       0.00000000       0.47392088
Cu       0.00000000       0.00000000       4.41272727       0.00000000       0.00000000      -0.47392088
2
Properties=species:S:1:pos:R:3:forces:R:3 energy=-14.048813448369344 pbc="F F F"
Cu       0.00000000       0.00000000       0.00000000       0.00000000       0.00000000       0.42003810
Cu       0.00000000       0.00000000       4.47151515       0.00000000       0.00000000      -0.42003810
2
Properties=species:S:1:pos:R:3:forces:R:3 energy=-14.025726021746182 pbc="F F F"
Cu       0.00000000       0.00000000       0.00000000       0.00000000       0.00000000       0.36538380
Cu       0.00000000       0.00000000       4.53030303       0.00000000       0.00000000      -0.36538380
2
Properties=species:S:1:pos:R:3:forces:R:3 energy=-14.005840672672782 pbc="F F F"
Cu       0.00000000       0.00000000       0.00000000       0.00000000       0.00000000       0.31136540
Cu       0.00000000       0.00000000       4.58909091       0.00000000       0.00000000      -0.31136540
2
Properties=species:S:1:pos:R:3:forces:R:3 energy=-13.98907959662492 pbc="F F F"
Cu       0.00000000       0.00000000       0.00000000       0.00000000       0.00000000       0.25928080
Cu       0.00000000       0.00000000       4.64787879       0.00000000       0.00000000      -0.25928080
2
Properties=species:S:1:pos:R:3:forces:R:3 energy=-13.97529640926684 pbc="F F F"
Cu       0.00000000       0.00000000       0.00000000       0.00000000       0.00000000       0.21018752
Cu       0.00000000       0.00000000       4.70666667       0.00000000       0.00000000      -0.21018752
2
Properties=species:S:1:pos:R:3:forces:R:3 energy=-13.964292304269685 pbc="F F F"
Cu       0.00000000       0.00000000       0.00000000       0.00000000       0.00000000       0.16487998
Cu       0.00000000       0.00000000       4.76545455       0.00000000       0.00000000      -0.16487998
2
Properties=species:S:1:pos:R:3:forces:R:3 energy=-13.955824680729872 pbc="F F F"
Cu       0.00000000       0.00000000       0.00000000       0.00000000       0.00000000       0.12393522
Cu       0.00000000       0.00000000       4.82424242       0.00000000       0.00000000      -0.12393522
2
Properties=species:S:1:pos:R:3:forces:R:3 energy=-13.949625232094826 pbc="F F F"
Cu       0.00000000       0.00000000       0.00000000       0.00000000       0.00000000       0.08788389
Cu       0.00000000       0.00000000       4.88303030       0.00000000       0.00000000      -0.08788389
2
Properties=species:S:1:pos:R:3:forces:R:3 energy=-13.945384684998055 pbc="F F F"
Cu       0.00000000       0.00000000       0.00000000       0.00000000       0.00000000       0.05733763
Cu       0.00000000       0.00000000       4.94181818       0.00000000       0.00000000      -0.05733763
2
Properties=species:S:1:pos:R:3:forces:R:3 energy=-13.942759459140252 pbc="F F F"
Cu       0.00000000       0.00000000       0.00000000       0.00000000       0.00000000       0.03305539
Cu       0.00000000       0.00000000       5.00060606       0.00000000       0.00000000      -0.03305539
2
Properties=species:S:1:pos:R:3:forces:R:3 energy=-13.94136119429484 pbc="F F F"
Cu       0.00000000       0.00000000       0.00000000       0.00000000       0.00000000       0.01575235
Cu       0.00000000       0.00000000       5.05939394       0.00000000       0.00000000      -0.01575235
2
Properties=species:S:1:pos:R:3:forces:R:3 energy=-13.940764339312768 pbc="F F F"
Cu       0.00000000       0.00000000       0.00000000       0.00000000       0.00000000       0.00572155
Cu       0.00000000       0.00000000       5.11818182       0.00000000       0.00000000      -0.00572155
2
Properties=species:S:1:pos:R:3:forces:R:3 energy=-13.94055670240497 pbc="F F F"
Cu       0.00000000       0.00000000       0.00000000       0.00000000       0.00000000       0.00236544
Cu       0.00000000       0.00000000       5.17696970       0.00000000       0.00000000      -0.00236544
2
Properties=species:S:1:pos:R:3:forces:R:3 energy=-13.940389985585714 pbc="F F F"
Cu       0.00000000       0.00000000       0.00000000       0.00000000       0.00000000       0.00389901
Cu       0.00000000       0.00000000       5.23575758       0.00000000       0.00000000      -0.00389901
2
Properties=species:S:1:pos:R:3:forces:R:3 energy=-13.9400560699064 pbc="F F F"
Cu       0.00000000       0.00000000       0.00000000       0.00000000       0.00000000       0.00757860
Cu       0.00000000       0.00000000       5.29454545       0.00000000       0.00000000      -0.00757860
2
Properties=species:S:1:pos:R:3:forces:R:3 energy=-13.939510846226094 pbc="F F F"
Cu       0.00000000       0.00000000       0.00000000       0.00000000       0.00000000       0.01073509
Cu       0.00000000       0.00000000       5.35333333       0.00000000       0.00000000      -0.01073509
2
Properties=species:S:1:pos:R:3:forces:R:3 energy=-13.938822704127157 pbc="F F F"
Cu       0.00000000       0.00000000       0.00000000       0.00000000       0.00000000       0.01249829
Cu       0.00000000       0.00000000       5.41212121       0.00000000       0.00000000      -0.01249829
2
Properties=species:S:1:pos:R:3:forces:R:3 energy=-13.938037111350246 pbc="F F F"
Cu       0.00000000       0.00000000       0.00000000       0.00000000       0.00000000       0.01442029
Cu       0.00000000       0.00000000       5.47090909       0.00000000       0.00000000      -0.01442029
2
Properties=species:S:1:pos:R:3:forces:R:3 energy=-13.937105079113094 pbc="F F F"
Cu       0.00000000       0.00000000       0.00000000       0.00000000       0.00000000       0.01734457
Cu       0.00000000       0.00000000       5.52969697       0.00000000       0.00000000      -0.01734457
2
Properties=species:S:1:pos:R:3:forces:R:3 energy=-13.936023339563732 pbc="F F F"
Cu       0.00000000       0.00000000       0.00000000       0.00000000       0.00000000       0.01903991
Cu       0.00000000       0.00000000       5.58848485       0.00000000       0.00000000      -0.01903991
2
Properties=species:S:1:pos:R:3:forces:R:3 energy=-13.934925911582138 pbc="F F F"
Cu       0.00000000       0.00000000       0.00000000       0.00000000       0.00000000       0.01779611
Cu       0.00000000       0.00000000       5.64727273       0.00000000       0.00000000      -0.01779611
2
Properties=species:S:1:pos:R:3:forces:R:3 energy=-13.93396868559709 pbc="F F F"
Cu       0.00000000       0.00000000       0.00000000       0.00000000       0.00000000       0.01464432
Cu       0.00000000       0.00000000       5.70606061       0.00000000       0.00000000      -0.01464432
2
Properties=species:S:1:pos:R:3:forces:R:3 energy=-13.93320163756344 pbc="F F F"
Cu       0.00000000       0.00000000       0.00000000       0.00000000       0.00000000       0.01147974
Cu       0.00000000       0.00000000       5.76484848       0.00000000       0.00000000      -0.01147974
2
Properties=species:S:1:pos:R:3:forces:R:3 energy=-13.932615567319125 pbc="F F F"
Cu       0.00000000       0.00000000       0.00000000       0.00000000       0.00000000       0.00847736
Cu       0.00000000       0.00000000       5.82363636       0.00000000       0.00000000      -0.00847736
2
Properties=species:S:1:pos:R:3:forces:R:3 energy=-13.932201211741617 pbc="F F F"
Cu       0.00000000       0.00000000       0.00000000       0.00000000       0.00000000       0.00576735
Cu       0.00000000       0.00000000       5.88242424       0.00000000       0.00000000      -0.00576735
2
Properties=species:S:1:pos:R:3:forces:R:3 energy=-13.931920646001789 pbc="F F F"
Cu       0.00000000       0.00000000       0.00000000       0.00000000       0.00000000       0.00392852
Cu       0.00000000       0.00000000       5.94121212       0.00000000       0.00000000      -0.00392852
2
Properties=species:S:1:pos:R:3:forces:R:3 energy=-13.931716821890985 pbc="F F F"
Cu       0.00000000       0.00000000       0.00000000       0.00000000       0.00000000       0.00320301
Cu       0.00000000       0.00000000       6.00000000       0.00000000       0.00000000      -0.00320301
