2
Properties=species:S:1:pos:R:3:forces:R:3 energy=31715.38521628907 pbc="F F F"
Ga       0.00000000       0.00000000       0.00000000       0.00000000       0.00000000  -87307.45312500
Ga       0.00000000       0.00000000       0.18000000       0.00000000       0.00000000   87307.45312500
2
Properties=species:S:1:pos:R:3:forces:R:3 energy=27394.76412253907 pbc="F F F"
Ga       0.00000000       0.00000000       0.00000000       0.00000000       0.00000000  -71219.50000000
Ga       0.00000000       0.00000000       0.23878788       0.00000000       0.00000000   71219.50000000
2
Properties=species:S:1:pos:R:3:forces:R:3 energy=22538.68404441407 pbc="F F F"
Ga       0.00000000       0.00000000       0.00000000       0.00000000       0.00000000  -97393.66406250
Ga       0.00000000       0.00000000       0.29757576       0.00000000       0.00000000   97393.66406250
2
Properties=species:S:1:pos:R:3:forces:R:3 energy=15917.73580222736 pbc="F F F"
Ga       0.00000000       0.00000000       0.00000000       0.00000000       0.00000000 -124747.41406250
Ga       0.00000000       0.00000000       0.35636364       0.00000000       0.00000000  124747.41406250
2
Properties=species:S:1:pos:R:3:forces:R:3 energy=8463.46431785236 pbc="F F F"
Ga       0.00000000       0.00000000       0.00000000       0.00000000       0.00000000 -121485.46875000
Ga       0.00000000       0.00000000       0.41515152       0.00000000       0.00000000  121485.46875000
2
Properties=species:S:1:pos:R:3:forces:R:3 energy=2719.4223256664436 pbc="F F F"
Ga       0.00000000       0.00000000       0.00000000       0.00000000       0.00000000  -69050.33593750
Ga       0.00000000       0.00000000       0.47393939       0.00000000       0.00000000   69050.33593750
2
Properties=species:S:1:pos:R:3:forces:R:3 energy=445.39125877428825 pbc="F F F"
Ga       0.00000000       0.00000000       0.00000000       0.00000000       0.00000000  -18196.58593750
Ga       0.00000000       0.00000000       0.53272727       0.00000000       0.00000000   18196.58593750
2
Properties=species:S:1:pos:R:3:forces:R:3 energy=-8.868252216501478 pbc="F F F"
Ga       0.00000000       0.00000000       0.00000000       0.00000000       0.00000000    7520.22167969
Ga       0.00000000       0.00000000       0.59151515       0.00000000       0.00000000   -7520.22167969
2
Properties=species:S:1:pos:R:3:forces:R:3 energy=130.64237267380935 pbc="F F F"
Ga       0.00000000       0.00000000       0.00000000       0.00000000       0.00000000    -387.80023193
Ga       0.00000000       0.00000000       0.65030303       0.00000000       0.00000000     387.80023193
2
Properties=species:S:1:pos:R:3:forces:R:3 energy=111.78969629171124 pbc="F F F"
Ga       0.00000000       0.00000000       0.00000000       0.00000000       0.00000000    -276.97598267
Ga       0.00000000       0.00000000       0.70909091       0.00000000       0.00000000     276.97598267
2
Properties=species:S:1:pos:R:3:forces:R:3 energy=96.40341243066277 pbc="F F F"
Ga       0.00000000       0.00000000       0.00000000       0.00000000       0.00000000    -259.89370728
Ga       0.00000000       0.00000000       0.76787879       0.00000000       0.00000000     259.89370728
2
Properties=species:S:1:pos:R:3:forces:R:3 energy=81.17043362807696 pbc="F F F"
Ga       0.00000000       0.00000000       0.00000000       0.00000000       0.00000000    -251.72709656
Ga       0.00000000       0.00000000       0.82666667       0.00000000       0.00000000     251.72709656
2
Properties=species:S:1:pos:R:3:forces:R:3 energy=67.33695282162643 pbc="F F F"
Ga       0.00000000       0.00000000       0.00000000       0.00000000       0.00000000    -218.99061584
Ga       0.00000000       0.00000000       0.88545455       0.00000000       0.00000000     218.99061584
2
Properties=species:S:1:pos:R:3:forces:R:3 energy=55.141213115130455 pbc="F F F"
Ga       0.00000000       0.00000000       0.00000000       0.00000000       0.00000000    -198.06828308
Ga       0.00000000       0.00000000       0.94424242       0.00000000       0.00000000     198.06828308
2
Properties=species:S:1:pos:R:3:forces:R:3 energy=43.87668680179593 pbc="F F F"
Ga       0.00000000       0.00000000       0.00000000       0.00000000       0.00000000    -187.89550781
Ga       0.00000000       0.00000000       1.00303030       0.00000000       0.00000000     187.89550781
2
Properties=species:S:1:pos:R:3:forces:R:3 energy=32.80541688564217 pbc="F F F"
Ga       0.00000000       0.00000000       0.00000000       0.00000000       0.00000000    -186.44317627
Ga       0.00000000       0.00000000       1.06181818       0.00000000       0.00000000     186.44317627
2
Properties=species:S:1:pos:R:3:forces:R:3 energy=22.23003856270808 pbc="F F F"
Ga       0.00000000       0.00000000       0.00000000       0.00000000       0.00000000    -173.90617371
Ga       0.00000000       0.00000000       1.12060606       0.00000000       0.00000000     173.90617371
2
Properties=species:S:1:pos:R:3:forces:R:3 energy=12.305422827851704 pbc="F F F"
Ga       0.00000000       0.00000000       0.00000000       0.00000000       0.00000000    -158.72227478
Ga       0.00000000       0.00000000       1.17939394       0.00000000       0.00000000     158.72227478
2
Properties=species:S:1:pos:R:3:forces:R:3 energy=4.6801311634859015 pbc="F F F"
Ga       0.00000000       0.00000000       0.00000000       0.00000000       0.00000000     -97.17984772
Ga       0.00000000       0.00000000       1.23818182       0.00000000       0.00000000      97.17984772
2
Properties=species:S:1:pos:R:3:forces:R:3 energy=0.18802016175574285 pbc="F F F"
Ga       0.00000000       0.00000000       0.00000000       0.00000000       0.00000000     -63.68030930
Ga       0.00000000       0.00000000       1.29696970       0.00000000       0.00000000      63.68030930
2
Properties=species:S:1:pos:R:3:forces:R:3 energy=-3.2846568116936687 pbc="F F F"
Ga       0.00000000       0.00000000       0.00000000       0.00000000       0.00000000     -55.36993790
Ga       0.00000000       0.00000000       1.35575758       0.00000000       0.00000000      55.36993790
2
Properties=species:S:1:pos:R:3:forces:R:3 energy=-6.31684872038433 pbc="F F F"
Ga       0.00000000       0.00000000       0.00000000       0.00000000       0.00000000     -47.53195953
Ga       0.00000000       0.00000000       1.41454545       0.00000000       0.00000000      47.53195953
2
Properties=species:S:1:pos:R:3:forces:R:3 energy=-8.859393642218121 pbc="F F F"
Ga       0.00000000       0.00000000       0.00000000       0.00000000       0.00000000     -39.01206589
Ga       0.00000000       0.00000000       1.47333333       0.00000000       0.00000000      39.01206589
2
Properties=species:S:1:pos:R:3:forces:R:3 energy=-10.924097097302637 pbc="F F F"
Ga       0.00000000       0.00000000       0.00000000       0.00000000       0.00000000     -31.49065971
Ga       0.00000000       0.00000000       1.53212121       0.00000000       0.00000000      31.49065971
2
Properties=species:S:1:pos:R:3:forces:R:3 energy=-12.595810334752377 pbc="F F F"
Ga       0.00000000       0.00000000       0.00000000       0.00000000       0.00000000     -25.66626167
Ga       0.00000000       0.00000000       1.59090909       0.00000000       0.00000000      25.66626167
2
Properties=species:S:1:pos:R:3:forces:R:3 energy=-13.971158664416333 pbc="F F F"
Ga       0.00000000       0.00000000       0.00000000       0.00000000       0.00000000     -21.32939529
Ga       0.00000000       0.00000000       1.64969697       0.00000000       0.00000000      21.32939529
2
Properties=species:S:1:pos:R:3:forces:R:3 energy=-15.122362871970564 pbc="F F F"
Ga       0.00000000       0.00000000       0.00000000       0.00000000       0.00000000     -17.95303154
Ga       0.00000000       0.00000000       1.70848485       0.00000000       0.00000000      17.95303154
2
Properties=species:S:1:pos:R:3:forces:R:3 energy=-16.09202738481927 pbc="F F F"
Ga       0.00000000       0.00000000       0.00000000       0.00000000       0.00000000     -15.09401226
Ga       0.00000000       0.00000000       1.76727273       0.00000000       0.00000000      15.09401226
2
Properties=species:S:1:pos:R:3:forces:R:3 energy=-16.901773892016863 pbc="F F F"
Ga       0.00000000       0.00000000       0.00000000       0.00000000       0.00000000     -12.48136806
Ga       0.00000000       0.00000000       1.82606061       0.00000000       0.00000000      12.48136806
2
Properties=species:S:1:pos:R:3:forces:R:3 energy=-17.562224407804045 pbc="F F F"
Ga       0.00000000       0.00000000       0.00000000       0.00000000       0.00000000     -10.01126385
Ga       0.00000000       0.00000000       1.88484848       0.00000000       0.00000000      10.01126385
2
Properties=species:S:1:pos:R:3:forces:R:3 energy=-18.082412138473646 pbc="F F F"
Ga       0.00000000       0.00000000       0.00000000       0.00000000       0.00000000      -7.72468662
Ga       0.00000000       0.00000000       1.94363636       0.00000000       0.00000000       7.72468662
2
Properties=species:S:1:pos:R:3:forces:R:3 energy=-18.476115798267546 pbc="F F F"
Ga       0.00000000       0.00000000       0.00000000       0.00000000       0.00000000      -5.72522306
Ga       0.00000000       0.00000000       2.00242424       0.00000000       0.00000000       5.72522306
2
Properties=species:S:1:pos:R:3:forces:R:3 energy=-18.76265117727428 pbc="F F F"
Ga       0.00000000       0.00000000       0.00000000       0.00000000       0.00000000      -4.08523655
Ga       0.00000000       0.00000000       2.06121212       0.00000000       0.00000000       4.08523655
2
Properties=species:S:1:pos:R:3:forces:R:3 energy=-18.96358098246045 pbc="F F F"
Ga       0.00000000       0.00000000       0.00000000       0.00000000       0.00000000      -2.80780244
Ga       0.00000000       0.00000000       2.12000000       0.00000000       0.00000000       2.80780244
2
Properties=species:S:1:pos:R:3:forces:R:3 energy=-19.09890591076031 pbc="F F F"
Ga       0.00000000       0.00000000       0.00000000       0.00000000       0.00000000      -1.84219396
Ga       0.00000000       0.00000000       2.17878788       0.00000000       0.00000000       1.84219396
2
Properties=species:S:1:pos:R:3:forces:R:3 energy=-19.18485596549347 pbc="F F F"
Ga       0.00000000       0.00000000       0.00000000       0.00000000       0.00000000      -1.11540806
Ga       0.00000000       0.00000000       2.23757576       0.00000000       0.00000000       1.11540806
2
Properties=species:S:1:pos:R:3:forces:R:3 energy=-19.233306855200606 pbc="F F F"
Ga       0.00000000       0.00000000       0.00000000       0.00000000       0.00000000      -0.55532700
Ga       0.00000000       0.00000000       2.29636364       0.00000000       0.00000000       0.55532700
2
Properties=species:S:1:pos:R:3:forces:R:3 energy=-19.25226257819014 pbc="F F F"
Ga       0.00000000       0.00000000       0.00000000       0.00000000       0.00000000      -0.10386550
Ga       0.00000000       0.00000000       2.35515152       0.00000000       0.00000000       0.10386550
2
Properties=species:S:1:pos:R:3:forces:R:3 energy=-19.246938768051272 pbc="F F F"
Ga       0.00000000       0.00000000       0.00000000       0.00000000       0.00000000       0.27436966
Ga       0.00000000       0.00000000       2.41393939       0.00000000       0.00000000      -0.27436966
2
Properties=species:S:1:pos:R:3:forces:R:3 energy=-19.22120267059575 pbc="F F F"
Ga       0.00000000       0.00000000       0.00000000       0.00000000       0.00000000       0.59086400
Ga       0.00000000       0.00000000       2.47272727       0.00000000       0.00000000      -0.59086400
2
Properties=species:S:1:pos:R:3:forces:R:3 energy=-19.178713575197467 pbc="F F F"
Ga       0.00000000       0.00000000       0.00000000       0.00000000       0.00000000       0.84378815
Ga       0.00000000       0.00000000       2.53151515       0.00000000       0.00000000      -0.84378815
2
Properties=species:S:1:pos:R:3:forces:R:3 energy=-19.12327940028776 pbc="F F F"
Ga       0.00000000       0.00000000       0.00000000       0.00000000       0.00000000       1.03120637
Ga       0.00000000       0.00000000       2.59030303       0.00000000       0.00000000      -1.03120637
2
Properties=species:S:1:pos:R:3:forces:R:3 energy=-19.05874837838068 pbc="F F F"
Ga       0.00000000       0.00000000       0.00000000       0.00000000       0.00000000       1.15321171
Ga       0.00000000       0.00000000       2.64909091       0.00000000       0.00000000      -1.15321171
2
Properties=species:S:1:pos:R:3:forces:R:3 energy=-18.98902947113198 pbc="F F F"
Ga       0.00000000       0.00000000       0.00000000       0.00000000       0.00000000       1.20683622
Ga       0.00000000       0.00000000       2.70787879       0.00000000       0.00000000      -1.20683622
2
Properties=species:S:1:pos:R:3:forces:R:3 energy=-18.91826857686057 pbc="F F F"
Ga       0.00000000       0.00000000       0.00000000       0.00000000       0.00000000       1.18858802
Ga       0.00000000       0.00000000       2.76666667       0.00000000       0.00000000      -1.18858802
2
Properties=species:S:1:pos:R:3:forces:R:3 energy=-18.85058407401149 pbc="F F F"
Ga       0.00000000       0.00000000       0.00000000       0.00000000       0.00000000       1.10432160
Ga       0.00000000       0.00000000       2.82545455       0.00000000       0.00000000      -1.10432160
2
Properties=species:S:1:pos:R:3:forces:R:3 energy=-18.789313297596475 pbc="F F F"
Ga       0.00000000       0.00000000       0.00000000       0.00000000       0.00000000       0.97524732
Ga       0.00000000       0.00000000       2.88424242       0.00000000       0.00000000      -0.97524732
2
Properties=species:S:1:pos:R:3:forces:R:3 energy=-18.73615730243025 pbc="F F F"
Ga       0.00000000       0.00000000       0.00000000       0.00000000       0.00000000       0.83407080
Ga       0.00000000       0.00000000       2.94303030       0.00000000       0.00000000      -0.83407080
2
Properties=species:S:1:pos:R:3:forces:R:3 energy=-18.69084078283894 pbc="F F F"
Ga       0.00000000       0.00000000       0.00000000       0.00000000       0.00000000       0.71320522
Ga       0.00000000       0.00000000       3.00181818       0.00000000       0.00000000      -0.71320522
2
Properties=species:S:1:pos:R:3:forces:R:3 energy=-18.65149118852761 pbc="F F F"
Ga       0.00000000       0.00000000       0.00000000       0.00000000       0.00000000       0.63309866
Ga       0.00000000       0.00000000       3.06060606       0.00000000       0.00000000      -0.63309866
2
Properties=species:S:1:pos:R:3:forces:R:3 energy=-18.61549615471193 pbc="F F F"
Ga       0.00000000       0.00000000       0.00000000       0.00000000       0.00000000       0.59889293
Ga       0.00000000       0.00000000       3.11939394       0.00000000       0.00000000      -0.59889293
2
Properties=species:S:1:pos:R:3:forces:R:3 energy=-18.580280577490754 pbc="F F F"
Ga       0.00000000       0.00000000       0.00000000       0.00000000       0.00000000       0.60514283
Ga       0.00000000       0.00000000       3.17818182       0.00000000       0.00000000      -0.60514283
2
Properties=species:S:1:pos:R:3:forces:R:3 energy=-18.543746681104405 pbc="F F F"
Ga       0.00000000       0.00000000       0.00000000       0.00000000       0.00000000       0.64192796
Ga       0.00000000       0.00000000       3.23696970       0.00000000       0.00000000      -0.64192796
2
Properties=species:S:1:pos:R:3:forces:R:3 energy=-18.504419603369023 pbc="F F F"
Ga       0.00000000       0.00000000       0.00000000       0.00000000       0.00000000       0.69847590
Ga       0.00000000       0.00000000       3.29575758       0.00000000       0.00000000      -0.69847590
2
Properties=species:S:1:pos:R:3:forces:R:3 energy=-18.461438829565772 pbc="F F F"
Ga       0.00000000       0.00000000       0.00000000       0.00000000       0.00000000       0.76450050
Ga       0.00000000       0.00000000       3.35454545       0.00000000       0.00000000      -0.76450050
2
Properties=species:S:1:pos:R:3:forces:R:3 energy=-18.41453104923271 pbc="F F F"
Ga       0.00000000       0.00000000       0.00000000       0.00000000       0.00000000       0.83057880
Ga       0.00000000       0.00000000       3.41333333       0.00000000       0.00000000      -0.83057880
2
Properties=species:S:1:pos:R:3:forces:R:3 energy=-18.363942685090993 pbc="F F F"
Ga       0.00000000       0.00000000       0.00000000       0.00000000       0.00000000       0.88851827
Ga       0.00000000       0.00000000       3.47212121       0.00000000       0.00000000      -0.88851827
2
Properties=species:S:1:pos:R:3:forces:R:3 energy=-18.310347539323757 pbc="F F F"
Ga       0.00000000       0.00000000       0.00000000       0.00000000       0.00000000       0.93206209
Ga       0.00000000       0.00000000       3.53090909       0.00000000       0.00000000      -0.93206209
2
Properties=species:S:1:pos:R:3:forces:R:3 energy=-18.254706381544214 pbc="F F F"
Ga       0.00000000       0.00000000       0.00000000       0.00000000       0.00000000       0.95781320
Ga       0.00000000       0.00000000       3.58969697       0.00000000       0.00000000      -0.95781320
2
Properties=species:S:1:pos:R:3:forces:R:3 energy=-18.198082355714682 pbc="F F F"
Ga       0.00000000       0.00000000       0.00000000       0.00000000       0.00000000       0.96573722
Ga       0.00000000       0.00000000       3.64848485       0.00000000       0.00000000      -0.96573722
2
Properties=species:S:1:pos:R:3:forces:R:3 energy=-18.14145241714511 pbc="F F F"
Ga       0.00000000       0.00000000       0.00000000       0.00000000       0.00000000       0.95876086
Ga       0.00000000       0.00000000       3.70727273       0.00000000       0.00000000      -0.95876086
2
Properties=species:S:1:pos:R:3:forces:R:3 energy=-18.085556778663964 pbc="F F F"
Ga       0.00000000       0.00000000       0.00000000       0.00000000       0.00000000       0.94148082
Ga       0.00000000       0.00000000       3.76606061       0.00000000       0.00000000      -0.94148082
2
Properties=species:S:1:pos:R:3:forces:R:3 energy=-18.03086658072612 pbc="F F F"
Ga       0.00000000       0.00000000       0.00000000       0.00000000       0.00000000       0.91858160
Ga       0.00000000       0.00000000       3.82484848       0.00000000       0.00000000      -0.91858160
2
Properties=species:S:1:pos:R:3:forces:R:3 energy=-17.97759538618983 pbc="F F F"
Ga       0.00000000       0.00000000       0.00000000       0.00000000       0.00000000       0.89358443
Ga       0.00000000       0.00000000       3.88363636       0.00000000       0.00000000      -0.89358443
2
Properties=species:S:1:pos:R:3:forces:R:3 energy=-17.925806025102297 pbc="F F F"
Ga       0.00000000       0.00000000       0.00000000       0.00000000       0.00000000       0.86829489
Ga       0.00000000       0.00000000       3.94242424       0.00000000       0.00000000      -0.86829489
2
Properties=species:S:1:pos:R:3:forces:R:3 energy=-17.87550597955432 pbc="F F F"
Ga       0.00000000       0.00000000       0.00000000       0.00000000       0.00000000       0.84290022
Ga       0.00000000       0.00000000       4.00121212       0.00000000       0.00000000      -0.84290022
2
Properties=species:S:1:pos:R:3:forces:R:3 energy=-17.826721787700006 pbc="F F F"
Ga       0.00000000       0.00000000       0.00000000       0.00000000       0.00000000       0.81648183
Ga       0.00000000       0.00000000       4.06000000       0.00000000       0.00000000      -0.81648183
2
Properties=species:S:1:pos:R:3:forces:R:3 energy=-17.779554366370586 pbc="F F F"
Ga       0.00000000       0.00000000       0.00000000       0.00000000       0.00000000       0.78770936
Ga       0.00000000       0.00000000       4.11878788       0.00000000       0.00000000      -0.78770936
2
Properties=species:S:1:pos:R:3:forces:R:3 energy=-17.734175209048445 pbc="F F F"
Ga       0.00000000       0.00000000       0.00000000       0.00000000       0.00000000       0.75544733
Ga       0.00000000       0.00000000       4.17757576       0.00000000       0.00000000      -0.75544733
2
Properties=species:S:1:pos:R:3:forces:R:3 energy=-17.690811129453905 pbc="F F F"
Ga       0.00000000       0.00000000       0.00000000       0.00000000       0.00000000       0.71916872
Ga       0.00000000       0.00000000       4.23636364       0.00000000       0.00000000      -0.71916872
2
Properties=species:S:1:pos:R:3:forces:R:3 energy=-17.649692763924122 pbc="F F F"
Ga       0.00000000       0.00000000       0.00000000       0.00000000       0.00000000       0.67908251
Ga       0.00000000       0.00000000       4.29515152       0.00000000       0.00000000      -0.67908251
2
Properties=species:S:1:pos:R:3:forces:R:3 energy=-17.611025986526155 pbc="F F F"
Ga       0.00000000       0.00000000       0.00000000       0.00000000       0.00000000       0.63603187
Ga       0.00000000       0.00000000       4.35393939       0.00000000       0.00000000      -0.63603187
2
Properties=species:S:1:pos:R:3:forces:R:3 energy=-17.574946113682845 pbc="F F F"
Ga       0.00000000       0.00000000       0.00000000       0.00000000       0.00000000       0.59121650
Ga       0.00000000       0.00000000       4.41272727       0.00000000       0.00000000      -0.59121650
2
Properties=species:S:1:pos:R:3:forces:R:3 energy=-17.541521735501156 pbc="F F F"
Ga       0.00000000       0.00000000       0.00000000       0.00000000       0.00000000       0.54592437
Ga       0.00000000       0.00000000       4.47151515       0.00000000       0.00000000      -0.54592437
2
Properties=species:S:1:pos:R:3:forces:R:3 energy=-17.510745184572688 pbc="F F F"
Ga       0.00000000       0.00000000       0.00000000       0.00000000       0.00000000       0.50129390
Ga       0.00000000       0.00000000       4.53030303       0.00000000       0.00000000      -0.50129390
2
Properties=species:S:1:pos:R:3:forces:R:3 energy=-17.482551609460014 pbc="F F F"
Ga       0.00000000       0.00000000       0.00000000       0.00000000       0.00000000       0.45819092
Ga       0.00000000       0.00000000       4.58909091       0.00000000       0.00000000      -0.45819092
2
Properties=species:S:1:pos:R:3:forces:R:3 energy=-17.456832331680797 pbc="F F F"
Ga       0.00000000       0.00000000       0.00000000       0.00000000       0.00000000       0.41715494
Ga       0.00000000       0.00000000       4.64787879       0.00000000       0.00000000      -0.41715494
2
Properties=species:S:1:pos:R:3:forces:R:3 energy=-17.43345964203197 pbc="F F F"
Ga       0.00000000       0.00000000       0.00000000       0.00000000       0.00000000       0.37841550
Ga       0.00000000       0.00000000       4.70666667       0.00000000       0.00000000      -0.37841550
2
Properties=species:S:1:pos:R:3:forces:R:3 energy=-17.41229443790382 pbc="F F F"
Ga       0.00000000       0.00000000       0.00000000       0.00000000       0.00000000       0.34201276
Ga       0.00000000       0.00000000       4.76545455       0.00000000       0.00000000      -0.34201276
2
Properties=species:S:1:pos:R:3:forces:R:3 energy=-17.39320147414951 pbc="F F F"
Ga       0.00000000       0.00000000       0.00000000       0.00000000       0.00000000       0.30790251
Ga       0.00000000       0.00000000       4.82424242       0.00000000       0.00000000      -0.30790251
2
Properties=species:S:1:pos:R:3:forces:R:3 energy=-17.376047470783575 pbc="F F F"
Ga       0.00000000       0.00000000       0.00000000       0.00000000       0.00000000       0.27614298
Ga       0.00000000       0.00000000       4.88303030       0.00000000       0.00000000      -0.27614298
2
Properties=species:S:1:pos:R:3:forces:R:3 energy=-17.360683938924698 pbc="F F F"
Ga       0.00000000       0.00000000       0.00000000       0.00000000       0.00000000       0.24699318
Ga       0.00000000       0.00000000       4.94181818       0.00000000       0.00000000      -0.24699318
2
Properties=species:S:1:pos:R:3:forces:R:3 energy=-17.34694526473555 pbc="F F F"
Ga       0.00000000       0.00000000       0.00000000       0.00000000       0.00000000       0.22090672
Ga       0.00000000       0.00000000       5.00060606       0.00000000       0.00000000      -0.22090672
2
Properties=species:S:1:pos:R:3:forces:R:3 energy=-17.334639191686556 pbc="F F F"
Ga       0.00000000       0.00000000       0.00000000       0.00000000       0.00000000       0.19834623
Ga       0.00000000       0.00000000       5.05939394       0.00000000       0.00000000      -0.19834623
2
Properties=species:S:1:pos:R:3:forces:R:3 energy=-17.323550622581894 pbc="F F F"
Ga       0.00000000       0.00000000       0.00000000       0.00000000       0.00000000       0.17957032
Ga       0.00000000       0.00000000       5.11818182       0.00000000       0.00000000      -0.17957032
2
Properties=species:S:1:pos:R:3:forces:R:3 energy=-17.31345496070448 pbc="F F F"
Ga       0.00000000       0.00000000       0.00000000       0.00000000       0.00000000       0.16445337
Ga       0.00000000       0.00000000       5.17696970       0.00000000       0.00000000      -0.16445337
2
Properties=species:S:1:pos:R:3:forces:R:3 energy=-17.3041562591645 pbc="F F F"
Ga       0.00000000       0.00000000       0.00000000       0.00000000       0.00000000       0.15233383
Ga       0.00000000       0.00000000       5.23575758       0.00000000       0.00000000      -0.15233383
2
Properties=species:S:1:pos:R:3:forces:R:3 energy=-17.295513928532003 pbc="F F F"
Ga       0.00000000       0.00000000       0.00000000       0.00000000       0.00000000       0.14182211
Ga       0.00000000       0.00000000       5.29454545       0.00000000       0.00000000      -0.14182211
2
Properties=species:S:1:pos:R:3:forces:R:3 energy=-17.287490397586 pbc="F F F"
Ga       0.00000000       0.00000000       0.00000000       0.00000000       0.00000000       0.13086928
Ga       0.00000000       0.00000000       5.35333333       0.00000000       0.00000000      -0.13086928
2
Properties=species:S:1:pos:R:3:forces:R:3 energy=-17.28015683932017 pbc="F F F"
Ga       0.00000000       0.00000000       0.00000000       0.00000000       0.00000000       0.11846793
Ga       0.00000000       0.00000000       5.41212121       0.00000000       0.00000000      -0.11846793
2
Properties=species:S:1:pos:R:3:forces:R:3 energy=-17.273534853086744 pbc="F F F"
Ga       0.00000000       0.00000000       0.00000000       0.00000000       0.00000000       0.10747121
Ga       0.00000000       0.00000000       5.47090909       0.00000000       0.00000000      -0.10747121
2
Properties=species:S:1:pos:R:3:forces:R:3 energy=-17.26741525855685 pbc="F F F"
Ga       0.00000000       0.00000000       0.00000000       0.00000000       0.00000000       0.10154784
Ga       0.00000000       0.00000000       5.52969697       0.00000000       0.00000000      -0.10154784
2
Properties=species:S:1:pos:R:3:forces:R:3 energy=-17.261565984842157 pbc="F F F"
Ga       0.00000000       0.00000000       0.00000000       0.00000000       0.00000000       0.09709295
Ga       0.00000000       0.00000000       5.58848485       0.00000000       0.00000000      -0.09709295
2
Properties=species:S:1:pos:R:3:forces:R:3 energy=-17.25608493395173 pbc="F F F"
Ga       0.00000000       0.00000000       0.00000000       0.00000000       0.00000000       0.08876610
Ga       0.00000000       0.00000000       5.64727273       0.00000000       0.00000000      -0.08876610
2
Properties=species:S:1:pos:R:3:forces:R:3 energy=-17.251129118279223 pbc="F F F"
Ga       0.00000000       0.00000000       0.00000000       0.00000000       0.00000000       0.08062354
Ga       0.00000000       0.00000000       5.70606061       0.00000000       0.00000000      -0.08062354
2
Properties=species:S:1:pos:R:3:forces:R:3 energy=-17.24647978115482 pbc="F F F"
Ga       0.00000000       0.00000000       0.00000000       0.00000000       0.00000000       0.07785553
Ga       0.00000000       0.00000000       5.76484848       0.00000000       0.00000000      -0.07785553
2
Properties=species:S:1:pos:R:3:forces:R:3 energy=-17.242070742711967 pbc="F F F"
Ga       0.00000000       0.00000000       0.00000000       0.00000000       0.00000000       0.06994543
Ga       0.00000000       0.00000000       5.82363636       0.00000000       0.00000000      -0.06994543
2
Properties=species:S:1:pos:R:3:forces:R:3 energy=-17.238627328417206 pbc="F F F"
Ga       0.00000000       0.00000000       0.00000000       0.00000000       0.00000000       0.04491374
Ga       0.00000000       0.00000000       5.88242424       0.00000000       0.00000000      -0.04491374
2
Properties=species:S:1:pos:R:3:forces:R:3 energy=-17.23687101577768 pbc="F F F"
Ga       0.00000000       0.00000000       0.00000000       0.00000000       0.00000000       0.01588361
Ga       0.00000000       0.00000000       5.94121212       0.00000000       0.00000000      -0.01588361
2
Properties=species:S:1:pos:R:3:forces:R:3 energy=-17.236415085026433 pbc="F F F"
Ga       0.00000000       0.00000000       0.00000000       0.00000000       0.00000000       0.00366873
Ga       0.00000000       0.00000000       6.00000000       0.00000000       0.00000000      -0.00366873
