2
Properties=species:S:1:pos:R:3:forces:R:3 energy=-86624.79968535839 pbc="F F F"
Gd       0.00000000       0.00000000       0.00000000       0.00000000       0.00000000 -199351.25000000
Gd       0.00000000       0.00000000       0.18000000       0.00000000       0.00000000  199351.25000000
2
Properties=species:S:1:pos:R:3:forces:R:3 energy=-92954.38562285839 pbc="F F F"
Gd       0.00000000       0.00000000       0.00000000       0.00000000       0.00000000  -43200.73828125
Gd       0.00000000       0.00000000       0.23878788       0.00000000       0.00000000   43200.73828125
2
Properties=species:S:1:pos:R:3:forces:R:3 energy=-93193.35437285839 pbc="F F F"
Gd       0.00000000       0.00000000       0.00000000       0.00000000       0.00000000   30283.83398438
Gd       0.00000000       0.00000000       0.29757576       0.00000000       0.00000000  -30283.83398438
2
Properties=species:S:1:pos:R:3:forces:R:3 energy=-89566.84656035839 pbc="F F F"
Gd       0.00000000       0.00000000       0.00000000       0.00000000       0.00000000   93486.63281250
Gd       0.00000000       0.00000000       0.35636364       0.00000000       0.00000000  -93486.63281250
2
Properties=species:S:1:pos:R:3:forces:R:3 energy=-82082.92468535839 pbc="F F F"
Gd       0.00000000       0.00000000       0.00000000       0.00000000       0.00000000  162135.53125000
Gd       0.00000000       0.00000000       0.41515152       0.00000000       0.00000000 -162135.53125000
2
Properties=species:S:1:pos:R:3:forces:R:3 energy=-70477.42468535522 pbc="F F F"
Gd       0.00000000       0.00000000       0.00000000       0.00000000       0.00000000  231743.40625000
Gd       0.00000000       0.00000000       0.47393939       0.00000000       0.00000000 -231743.40625000
2
Properties=species:S:1:pos:R:3:forces:R:3 energy=-55161.998904105225 pbc="F F F"
Gd       0.00000000       0.00000000       0.00000000       0.00000000       0.00000000  284498.00000000
Gd       0.00000000       0.00000000       0.53272727       0.00000000       0.00000000 -284498.00000000
2
Properties=species:S:1:pos:R:3:forces:R:3 energy=-37833.87781035205 pbc="F F F"
Gd       0.00000000       0.00000000       0.00000000       0.00000000       0.00000000  296308.00000000
Gd       0.00000000       0.00000000       0.59151515       0.00000000       0.00000000 -296308.00000000
2
Properties=species:S:1:pos:R:3:forces:R:3 energy=-21445.30945097072 pbc="F F F"
Gd       0.00000000       0.00000000       0.00000000       0.00000000       0.00000000  251781.09375000
Gd       0.00000000       0.00000000       0.65030303       0.00000000       0.00000000 -251781.09375000
2
Properties=species:S:1:pos:R:3:forces:R:3 energy=-9132.115115026883 pbc="F F F"
Gd       0.00000000       0.00000000       0.00000000       0.00000000       0.00000000  162420.32812500
Gd       0.00000000       0.00000000       0.70909091       0.00000000       0.00000000 -162420.32812500
2
Properties=species:S:1:pos:R:3:forces:R:3 energy=-2430.607790795462 pbc="F F F"
Gd       0.00000000       0.00000000       0.00000000       0.00000000       0.00000000   61461.08984375
Gd       0.00000000       0.00000000       0.76787879       0.00000000       0.00000000  -61461.08984375
2
Properties=species:S:1:pos:R:3:forces:R:3 energy=-358.6987941912559 pbc="F F F"
Gd       0.00000000       0.00000000       0.00000000       0.00000000       0.00000000   15171.94628906
Gd       0.00000000       0.00000000       0.82666667       0.00000000       0.00000000  -15171.94628906
2
Properties=species:S:1:pos:R:3:forces:R:3 energy=-15.877398291889888 pbc="F F F"
Gd       0.00000000       0.00000000       0.00000000       0.00000000       0.00000000    4147.31347656
Gd       0.00000000       0.00000000       0.88545455       0.00000000       0.00000000   -4147.31347656
2
Properties=species:S:1:pos:R:3:forces:R:3 energy=19.88829541067476 pbc="F F F"
Gd       0.00000000       0.00000000       0.00000000       0.00000000       0.00000000     191.09141541
Gd       0.00000000       0.00000000       0.94424242       0.00000000       0.00000000    -191.09141541
2
Properties=species:S:1:pos:R:3:forces:R:3 energy=-6.603220651921336 pbc="F F F"
Gd       0.00000000       0.00000000       0.00000000       0.00000000       0.00000000    -567.98187256
Gd       0.00000000       0.00000000       1.00303030       0.00000000       0.00000000     567.98187256
2
Properties=species:S:1:pos:R:3:forces:R:3 energy=-23.927012087719408 pbc="F F F"
Gd       0.00000000       0.00000000       0.00000000       0.00000000       0.00000000    -126.98863220
Gd       0.00000000       0.00000000       1.06181818       0.00000000       0.00000000     126.98863220
2
Properties=species:S:1:pos:R:3:forces:R:3 energy=-31.34087994629202 pbc="F F F"
Gd       0.00000000       0.00000000       0.00000000       0.00000000       0.00000000    -114.70629120
Gd       0.00000000       0.00000000       1.12060606       0.00000000       0.00000000     114.70629120
2
Properties=species:S:1:pos:R:3:forces:R:3 energy=-37.41990128135611 pbc="F F F"
Gd       0.00000000       0.00000000       0.00000000       0.00000000       0.00000000     -96.23429871
Gd       0.00000000       0.00000000       1.17939394       0.00000000       0.00000000      96.23429871
2
Properties=species:S:1:pos:R:3:forces:R:3 energy=-42.87553238540416 pbc="F F F"
Gd       0.00000000       0.00000000       0.00000000       0.00000000       0.00000000     -88.49768829
Gd       0.00000000       0.00000000       1.23818182       0.00000000       0.00000000      88.49768829
2
Properties=species:S:1:pos:R:3:forces:R:3 energy=-47.71192363955771 pbc="F F F"
Gd       0.00000000       0.00000000       0.00000000       0.00000000       0.00000000     -76.21267700
Gd       0.00000000       0.00000000       1.29696970       0.00000000       0.00000000      76.21267700
2
Properties=species:S:1:pos:R:3:forces:R:3 energy=-51.98519304737181 pbc="F F F"
Gd       0.00000000       0.00000000       0.00000000       0.00000000       0.00000000     -70.78627014
Gd       0.00000000       0.00000000       1.35575758       0.00000000       0.00000000      70.78627014
2
Properties=species:S:1:pos:R:3:forces:R:3 energy=-56.08590074790556 pbc="F F F"
Gd       0.00000000       0.00000000       0.00000000       0.00000000       0.00000000     -67.68367767
Gd       0.00000000       0.00000000       1.41454545       0.00000000       0.00000000      67.68367767
2
Properties=species:S:1:pos:R:3:forces:R:3 energy=-59.83966166402254 pbc="F F F"
Gd       0.00000000       0.00000000       0.00000000       0.00000000       0.00000000     -60.44787979
Gd       0.00000000       0.00000000       1.47333333       0.00000000       0.00000000      60.44787979
2
Properties=species:S:1:pos:R:3:forces:R:3 energy=-63.40367182005378 pbc="F F F"
Gd       0.00000000       0.00000000       0.00000000       0.00000000       0.00000000     -62.97171021
Gd       0.00000000       0.00000000       1.53212121       0.00000000       0.00000000      62.97171021
2
Properties=species:S:1:pos:R:3:forces:R:3 energy=-67.33706664192363 pbc="F F F"
Gd       0.00000000       0.00000000       0.00000000       0.00000000       0.00000000     -69.76519775
Gd       0.00000000       0.00000000       1.59090909       0.00000000       0.00000000      69.76519775
2
Properties=species:S:1:pos:R:3:forces:R:3 energy=-71.32634665677372 pbc="F F F"
Gd       0.00000000       0.00000000       0.00000000       0.00000000       0.00000000     -62.94485474
Gd       0.00000000       0.00000000       1.64969697       0.00000000       0.00000000      62.94485474
2
Properties=species:S:1:pos:R:3:forces:R:3 energy=-74.37920228637202 pbc="F F F"
Gd       0.00000000       0.00000000       0.00000000       0.00000000       0.00000000     -38.14874649
Gd       0.00000000       0.00000000       1.70848485       0.00000000       0.00000000      38.14874649
2
Properties=species:S:1:pos:R:3:forces:R:3 energy=-75.65742243471826 pbc="F F F"
Gd       0.00000000       0.00000000       0.00000000       0.00000000       0.00000000      -6.25697470
Gd       0.00000000       0.00000000       1.76727273       0.00000000       0.00000000       6.25697470
2
Properties=species:S:1:pos:R:3:forces:R:3 energy=-75.43749634695362 pbc="F F F"
Gd       0.00000000       0.00000000       0.00000000       0.00000000       0.00000000      10.28268337
Gd       0.00000000       0.00000000       1.82606061       0.00000000       0.00000000     -10.28268337
2
Properties=species:S:1:pos:R:3:forces:R:3 energy=-74.78029129938632 pbc="F F F"
Gd       0.00000000       0.00000000       0.00000000       0.00000000       0.00000000      10.22314548
Gd       0.00000000       0.00000000       1.88484848       0.00000000       0.00000000     -10.22314548
2
Properties=species:S:1:pos:R:3:forces:R:3 energy=-74.34647468452343 pbc="F F F"
Gd       0.00000000       0.00000000       0.00000000       0.00000000       0.00000000       4.30098629
Gd       0.00000000       0.00000000       1.94363636       0.00000000       0.00000000      -4.30098629
2
Properties=species:S:1:pos:R:3:forces:R:3 energy=-74.25550752550534 pbc="F F F"
Gd       0.00000000       0.00000000       0.00000000       0.00000000       0.00000000      -0.82579637
Gd       0.00000000       0.00000000       2.00242424       0.00000000       0.00000000       0.82579637
2
Properties=species:S:1:pos:R:3:forces:R:3 energy=-74.39540553772413 pbc="F F F"
Gd       0.00000000       0.00000000       0.00000000       0.00000000       0.00000000      -3.56373858
Gd       0.00000000       0.00000000       2.06121212       0.00000000       0.00000000       3.56373858
2
Properties=species:S:1:pos:R:3:forces:R:3 energy=-74.64031418147495 pbc="F F F"
Gd       0.00000000       0.00000000       0.00000000       0.00000000       0.00000000      -4.55553913
Gd       0.00000000       0.00000000       2.12000000       0.00000000       0.00000000       4.55553913
2
Properties=species:S:1:pos:R:3:forces:R:3 energy=-74.91354273858019 pbc="F F F"
Gd       0.00000000       0.00000000       0.00000000       0.00000000       0.00000000      -4.64304781
Gd       0.00000000       0.00000000       2.17878788       0.00000000       0.00000000       4.64304781
2
Properties=species:S:1:pos:R:3:forces:R:3 energy=-75.17904227711408 pbc="F F F"
Gd       0.00000000       0.00000000       0.00000000       0.00000000       0.00000000      -4.35563087
Gd       0.00000000       0.00000000       2.23757576       0.00000000       0.00000000       4.35563087
2
Properties=species:S:1:pos:R:3:forces:R:3 energy=-75.42368254889972 pbc="F F F"
Gd       0.00000000       0.00000000       0.00000000       0.00000000       0.00000000      -3.96149588
Gd       0.00000000       0.00000000       2.29636364       0.00000000       0.00000000       3.96149588
2
Properties=species:S:1:pos:R:3:forces:R:3 energy=-75.64467876316068 pbc="F F F"
Gd       0.00000000       0.00000000       0.00000000       0.00000000       0.00000000      -3.55655146
Gd       0.00000000       0.00000000       2.35515152       0.00000000       0.00000000       3.55655146
2
Properties=species:S:1:pos:R:3:forces:R:3 energy=-75.84152732125318 pbc="F F F"
Gd       0.00000000       0.00000000       0.00000000       0.00000000       0.00000000      -3.13486886
Gd       0.00000000       0.00000000       2.41393939       0.00000000       0.00000000       3.13486886
2
Properties=species:S:1:pos:R:3:forces:R:3 energy=-76.01238947573874 pbc="F F F"
Gd       0.00000000       0.00000000       0.00000000       0.00000000       0.00000000      -2.67036343
Gd       0.00000000       0.00000000       2.47272727       0.00000000       0.00000000       2.67036343
2
Properties=species:S:1:pos:R:3:forces:R:3 energy=-76.15490765342429 pbc="F F F"
Gd       0.00000000       0.00000000       0.00000000       0.00000000       0.00000000      -2.17709184
Gd       0.00000000       0.00000000       2.53151515       0.00000000       0.00000000       2.17709184
2
Properties=species:S:1:pos:R:3:forces:R:3 energy=-76.26886052900849 pbc="F F F"
Gd       0.00000000       0.00000000       0.00000000       0.00000000       0.00000000      -1.70912504
Gd       0.00000000       0.00000000       2.59030303       0.00000000       0.00000000       1.70912504
2
Properties=species:S:1:pos:R:3:forces:R:3 energy=-76.35739894264638 pbc="F F F"
Gd       0.00000000       0.00000000       0.00000000       0.00000000       0.00000000      -1.31873715
Gd       0.00000000       0.00000000       2.64909091       0.00000000       0.00000000       1.31873715
2
Properties=species:S:1:pos:R:3:forces:R:3 energy=-76.42576420443362 pbc="F F F"
Gd       0.00000000       0.00000000       0.00000000       0.00000000       0.00000000      -1.02131069
Gd       0.00000000       0.00000000       2.70787879       0.00000000       0.00000000       1.02131069
2
Properties=species:S:1:pos:R:3:forces:R:3 energy=-76.47883901441253 pbc="F F F"
Gd       0.00000000       0.00000000       0.00000000       0.00000000       0.00000000      -0.79228842
Gd       0.00000000       0.00000000       2.76666667       0.00000000       0.00000000       0.79228842
2
Properties=species:S:1:pos:R:3:forces:R:3 energy=-76.51940799388105 pbc="F F F"
Gd       0.00000000       0.00000000       0.00000000       0.00000000       0.00000000      -0.58869106
Gd       0.00000000       0.00000000       2.82545455       0.00000000       0.00000000       0.58869106
2
Properties=species:S:1:pos:R:3:forces:R:3 energy=-76.54782197302649 pbc="F F F"
Gd       0.00000000       0.00000000       0.00000000       0.00000000       0.00000000      -0.37390518
Gd       0.00000000       0.00000000       2.88424242       0.00000000       0.00000000       0.37390518
2
Properties=species:S:1:pos:R:3:forces:R:3 energy=-76.56279909160642 pbc="F F F"
Gd       0.00000000       0.00000000       0.00000000       0.00000000       0.00000000      -0.13056372
Gd       0.00000000       0.00000000       2.94303030       0.00000000       0.00000000       0.13056372
2
Properties=species:S:1:pos:R:3:forces:R:3 energy=-76.56262260121889 pbc="F F F"
Gd       0.00000000       0.00000000       0.00000000       0.00000000       0.00000000       0.14039376
Gd       0.00000000       0.00000000       3.00181818       0.00000000       0.00000000      -0.14039376
2
Properties=species:S:1:pos:R:3:forces:R:3 energy=-76.54597246455452 pbc="F F F"
Gd       0.00000000       0.00000000       0.00000000       0.00000000       0.00000000       0.42760643
Gd       0.00000000       0.00000000       3.06060606       0.00000000       0.00000000      -0.42760643
2
Properties=species:S:1:pos:R:3:forces:R:3 energy=-76.51230683779441 pbc="F F F"
Gd       0.00000000       0.00000000       0.00000000       0.00000000       0.00000000       0.71669567
Gd       0.00000000       0.00000000       3.11939394       0.00000000       0.00000000      -0.71669567
2
Properties=species:S:1:pos:R:3:forces:R:3 energy=-76.46193073674476 pbc="F F F"
Gd       0.00000000       0.00000000       0.00000000       0.00000000       0.00000000       0.99420923
Gd       0.00000000       0.00000000       3.17818182       0.00000000       0.00000000      -0.99420923
2
Properties=species:S:1:pos:R:3:forces:R:3 energy=-76.3958663165391 pbc="F F F"
Gd       0.00000000       0.00000000       0.00000000       0.00000000       0.00000000       1.24893785
Gd       0.00000000       0.00000000       3.23696970       0.00000000       0.00000000      -1.24893785
2
Properties=species:S:1:pos:R:3:forces:R:3 energy=-76.31570793690076 pbc="F F F"
Gd       0.00000000       0.00000000       0.00000000       0.00000000       0.00000000       1.47231877
Gd       0.00000000       0.00000000       3.29575758       0.00000000       0.00000000      -1.47231877
2
Properties=species:S:1:pos:R:3:forces:R:3 energy=-76.22348479977926 pbc="F F F"
Gd       0.00000000       0.00000000       0.00000000       0.00000000       0.00000000       1.65847003
Gd       0.00000000       0.00000000       3.35454545       0.00000000       0.00000000      -1.65847003
2
Properties=species:S:1:pos:R:3:forces:R:3 energy=-76.12151603361971 pbc="F F F"
Gd       0.00000000       0.00000000       0.00000000       0.00000000       0.00000000       1.80360341
Gd       0.00000000       0.00000000       3.41333333       0.00000000       0.00000000      -1.80360341
2
Properties=species:S:1:pos:R:3:forces:R:3 energy=-76.01228856444575 pbc="F F F"
Gd       0.00000000       0.00000000       0.00000000       0.00000000       0.00000000       1.90466774
Gd       0.00000000       0.00000000       3.47212121       0.00000000       0.00000000      -1.90466774
2
Properties=species:S:1:pos:R:3:forces:R:3 energy=-75.89850296667039 pbc="F F F"
Gd       0.00000000       0.00000000       0.00000000       0.00000000       0.00000000       1.95826292
Gd       0.00000000       0.00000000       3.53090909       0.00000000       0.00000000      -1.95826292
2
Properties=species:S:1:pos:R:3:forces:R:3 energy=-75.78305052422739 pbc="F F F"
Gd       0.00000000       0.00000000       0.00000000       0.00000000       0.00000000       1.96073031
Gd       0.00000000       0.00000000       3.58969697       0.00000000       0.00000000      -1.96073031
2
Properties=species:S:1:pos:R:3:forces:R:3 energy=-75.66901324957814 pbc="F F F"
Gd       0.00000000       0.00000000       0.00000000       0.00000000       0.00000000       1.90990889
Gd       0.00000000       0.00000000       3.64848485       0.00000000       0.00000000      -1.90990889
2
Properties=species:S:1:pos:R:3:forces:R:3 energy=-75.55949603228024 pbc="F F F"
Gd       0.00000000       0.00000000       0.00000000       0.00000000       0.00000000       1.80793703
Gd       0.00000000       0.00000000       3.70727273       0.00000000       0.00000000      -1.80793703
2
Properties=species:S:1:pos:R:3:forces:R:3 energy=-75.45727571059774 pbc="F F F"
Gd       0.00000000       0.00000000       0.00000000       0.00000000       0.00000000       1.66357005
Gd       0.00000000       0.00000000       3.76606061       0.00000000       0.00000000      -1.66357005
2
Properties=species:S:1:pos:R:3:forces:R:3 energy=-75.36442718365177 pbc="F F F"
Gd       0.00000000       0.00000000       0.00000000       0.00000000       0.00000000       1.49229538
Gd       0.00000000       0.00000000       3.82484848       0.00000000       0.00000000      -1.49229538
2
Properties=species:S:1:pos:R:3:forces:R:3 energy=-75.28197248461468 pbc="F F F"
Gd       0.00000000       0.00000000       0.00000000       0.00000000       0.00000000       1.31340384
Gd       0.00000000       0.00000000       3.88363636       0.00000000       0.00000000      -1.31340384
2
Properties=species:S:1:pos:R:3:forces:R:3 energy=-75.20978922955958 pbc="F F F"
Gd       0.00000000       0.00000000       0.00000000       0.00000000       0.00000000       1.14529371
Gd       0.00000000       0.00000000       3.94242424       0.00000000       0.00000000      -1.14529371
2
Properties=species:S:1:pos:R:3:forces:R:3 energy=-75.14683186831782 pbc="F F F"
Gd       0.00000000       0.00000000       0.00000000       0.00000000       0.00000000       1.00141835
Gd       0.00000000       0.00000000       4.00121212       0.00000000       0.00000000      -1.00141835
2
Properties=species:S:1:pos:R:3:forces:R:3 energy=-75.09143685392462 pbc="F F F"
Gd       0.00000000       0.00000000       0.00000000       0.00000000       0.00000000       0.88872486
Gd       0.00000000       0.00000000       4.06000000       0.00000000       0.00000000      -0.88872486
2
Properties=species:S:1:pos:R:3:forces:R:3 energy=-75.0417041250169 pbc="F F F"
Gd       0.00000000       0.00000000       0.00000000       0.00000000       0.00000000       0.80847597
Gd       0.00000000       0.00000000       4.11878788       0.00000000       0.00000000      -0.80847597
2
Properties=species:S:1:pos:R:3:forces:R:3 energy=-74.99578701332204 pbc="F F F"
Gd       0.00000000       0.00000000       0.00000000       0.00000000       0.00000000       0.75807744
Gd       0.00000000       0.00000000       4.17757576       0.00000000       0.00000000      -0.75807744
2
Properties=species:S:1:pos:R:3:forces:R:3 energy=-74.95207536179785 pbc="F F F"
Gd       0.00000000       0.00000000       0.00000000       0.00000000       0.00000000       0.73276716
Gd       0.00000000       0.00000000       4.23636364       0.00000000       0.00000000      -0.73276716
2
Properties=species:S:1:pos:R:3:forces:R:3 energy=-74.90925655186933 pbc="F F F"
Gd       0.00000000       0.00000000       0.00000000       0.00000000       0.00000000       0.72672629
Gd       0.00000000       0.00000000       4.29515152       0.00000000       0.00000000      -0.72672629
2
Properties=species:S:1:pos:R:3:forces:R:3 energy=-74.86637655125615 pbc="F F F"
Gd       0.00000000       0.00000000       0.00000000       0.00000000       0.00000000       0.73369968
Gd       0.00000000       0.00000000       4.35393939       0.00000000       0.00000000      -0.73369968
2
Properties=species:S:1:pos:R:3:forces:R:3 energy=-74.82286278948503 pbc="F F F"
Gd       0.00000000       0.00000000       0.00000000       0.00000000       0.00000000       0.74725103
Gd       0.00000000       0.00000000       4.41272727       0.00000000       0.00000000      -0.74725103
2
Properties=species:S:1:pos:R:3:forces:R:3 energy=-74.7785165379986 pbc="F F F"
Gd       0.00000000       0.00000000       0.00000000       0.00000000       0.00000000       0.76092768
Gd       0.00000000       0.00000000       4.47151515       0.00000000       0.00000000      -0.76092768
2
Properties=species:S:1:pos:R:3:forces:R:3 energy=-74.73351292282673 pbc="F F F"
Gd       0.00000000       0.00000000       0.00000000       0.00000000       0.00000000       0.76849824
Gd       0.00000000       0.00000000       4.53030303       0.00000000       0.00000000      -0.76849824
2
Properties=species:S:1:pos:R:3:forces:R:3 energy=-74.68838564837445 pbc="F F F"
Gd       0.00000000       0.00000000       0.00000000       0.00000000       0.00000000       0.76447129
Gd       0.00000000       0.00000000       4.58909091       0.00000000       0.00000000      -0.76447129
2
Properties=species:S:1:pos:R:3:forces:R:3 energy=-74.64393546527837 pbc="F F F"
Gd       0.00000000       0.00000000       0.00000000       0.00000000       0.00000000       0.74495375
Gd       0.00000000       0.00000000       4.64787879       0.00000000       0.00000000      -0.74495375
2
Properties=species:S:1:pos:R:3:forces:R:3 energy=-74.6011309819422 pbc="F F F"
Gd       0.00000000       0.00000000       0.00000000       0.00000000       0.00000000       0.70860922
Gd       0.00000000       0.00000000       4.70666667       0.00000000       0.00000000      -0.70860922
2
Properties=species:S:1:pos:R:3:forces:R:3 energy=-74.5609179391769 pbc="F F F"
Gd       0.00000000       0.00000000       0.00000000       0.00000000       0.00000000       0.65735614
Gd       0.00000000       0.00000000       4.76545455       0.00000000       0.00000000      -0.65735614
2
Properties=species:S:1:pos:R:3:forces:R:3 energy=-74.52403609839628 pbc="F F F"
Gd       0.00000000       0.00000000       0.00000000       0.00000000       0.00000000       0.59618193
Gd       0.00000000       0.00000000       4.82424242       0.00000000       0.00000000      -0.59618193
2
Properties=species:S:1:pos:R:3:forces:R:3 energy=-74.49088193152234 pbc="F F F"
Gd       0.00000000       0.00000000       0.00000000       0.00000000       0.00000000       0.53205925
Gd       0.00000000       0.00000000       4.88303030       0.00000000       0.00000000      -0.53205925
2
Properties=species:S:1:pos:R:3:forces:R:3 energy=-74.46139417531566 pbc="F F F"
Gd       0.00000000       0.00000000       0.00000000       0.00000000       0.00000000       0.47209921
Gd       0.00000000       0.00000000       4.94181818       0.00000000       0.00000000      -0.47209921
2
Properties=species:S:1:pos:R:3:forces:R:3 energy=-74.43517589851999 pbc="F F F"
Gd       0.00000000       0.00000000       0.00000000       0.00000000       0.00000000       0.42167899
Gd       0.00000000       0.00000000       5.00060606       0.00000000       0.00000000      -0.42167899
2
Properties=species:S:1:pos:R:3:forces:R:3 energy=-74.4115784505447 pbc="F F F"
Gd       0.00000000       0.00000000       0.00000000       0.00000000       0.00000000       0.38319156
Gd       0.00000000       0.00000000       5.05939394       0.00000000       0.00000000      -0.38319156
2
Properties=species:S:1:pos:R:3:forces:R:3 energy=-74.38990743452631 pbc="F F F"
Gd       0.00000000       0.00000000       0.00000000       0.00000000       0.00000000       0.35590377
Gd       0.00000000       0.00000000       5.11818182       0.00000000       0.00000000      -0.35590377
2
Properties=species:S:1:pos:R:3:forces:R:3 energy=-74.36957531897774 pbc="F F F"
Gd       0.00000000       0.00000000       0.00000000       0.00000000       0.00000000       0.33682409
Gd       0.00000000       0.00000000       5.17696970       0.00000000       0.00000000      -0.33682409
2
Properties=species:S:1:pos:R:3:forces:R:3 energy=-74.35021587237063 pbc="F F F"
Gd       0.00000000       0.00000000       0.00000000       0.00000000       0.00000000       0.32209307
Gd       0.00000000       0.00000000       5.23575758       0.00000000       0.00000000      -0.32209307
2
Properties=species:S:1:pos:R:3:forces:R:3 energy=-74.33169179569774 pbc="F F F"
Gd       0.00000000       0.00000000       0.00000000       0.00000000       0.00000000       0.30827460
Gd       0.00000000       0.00000000       5.29454545       0.00000000       0.00000000      -0.30827460
2
Properties=species:S:1:pos:R:3:forces:R:3 energy=-74.31399555935093 pbc="F F F"
Gd       0.00000000       0.00000000       0.00000000       0.00000000       0.00000000       0.29357857
Gd       0.00000000       0.00000000       5.35333333       0.00000000       0.00000000      -0.29357857
2
Properties=species:S:1:pos:R:3:forces:R:3 energy=-74.29717308541721 pbc="F F F"
Gd       0.00000000       0.00000000       0.00000000       0.00000000       0.00000000       0.27875930
Gd       0.00000000       0.00000000       5.41212121       0.00000000       0.00000000      -0.27875930
2
Properties=species:S:1:pos:R:3:forces:R:3 energy=-74.28121696466569 pbc="F F F"
Gd       0.00000000       0.00000000       0.00000000       0.00000000       0.00000000       0.26386905
Gd       0.00000000       0.00000000       5.47090909       0.00000000       0.00000000      -0.26386905
2
Properties=species:S:1:pos:R:3:forces:R:3 energy=-74.26625717398782 pbc="F F F"
Gd       0.00000000       0.00000000       0.00000000       0.00000000       0.00000000       0.24317893
Gd       0.00000000       0.00000000       5.52969697       0.00000000       0.00000000      -0.24317893
2
Properties=species:S:1:pos:R:3:forces:R:3 energy=-74.25288151730342 pbc="F F F"
Gd       0.00000000       0.00000000       0.00000000       0.00000000       0.00000000       0.20967644
Gd       0.00000000       0.00000000       5.58848485       0.00000000       0.00000000      -0.20967644
2
Properties=species:S:1:pos:R:3:forces:R:3 energy=-74.24179232339752 pbc="F F F"
Gd       0.00000000       0.00000000       0.00000000       0.00000000       0.00000000       0.16708742
Gd       0.00000000       0.00000000       5.64727273       0.00000000       0.00000000      -0.16708742
2
Properties=species:S:1:pos:R:3:forces:R:3 energy=-74.23308161067433 pbc="F F F"
Gd       0.00000000       0.00000000       0.00000000       0.00000000       0.00000000       0.13247769
Gd       0.00000000       0.00000000       5.70606061       0.00000000       0.00000000      -0.13247769
2
Properties=species:S:1:pos:R:3:forces:R:3 energy=-74.22579624809897 pbc="F F F"
Gd       0.00000000       0.00000000       0.00000000       0.00000000       0.00000000       0.11795406
Gd       0.00000000       0.00000000       5.76484848       0.00000000       0.00000000      -0.11795406
2
Properties=species:S:1:pos:R:3:forces:R:3 energy=-74.2191357574675 pbc="F F F"
Gd       0.00000000       0.00000000       0.00000000       0.00000000       0.00000000       0.10638750
Gd       0.00000000       0.00000000       5.82363636       0.00000000       0.00000000      -0.10638750
2
Properties=species:S:1:pos:R:3:forces:R:3 energy=-74.21381795918894 pbc="F F F"
Gd       0.00000000       0.00000000       0.00000000       0.00000000       0.00000000       0.07048673
Gd       0.00000000       0.00000000       5.88242424       0.00000000       0.00000000      -0.07048673
2
Properties=species:S:1:pos:R:3:forces:R:3 energy=-74.21102612217564 pbc="F F F"
Gd       0.00000000       0.00000000       0.00000000       0.00000000       0.00000000       0.02579958
Gd       0.00000000       0.00000000       5.94121212       0.00000000       0.00000000      -0.02579958
2
Properties=species:S:1:pos:R:3:forces:R:3 energy=-74.21025747141758 pbc="F F F"
Gd       0.00000000       0.00000000       0.00000000       0.00000000       0.00000000       0.00676438
Gd       0.00000000       0.00000000       6.00000000       0.00000000       0.00000000      -0.00676438
