2
Properties=species:S:1:pos:R:3:forces:R:3 energy=2265.1078225106044 pbc="F F F"
H        0.00000000       0.00000000       0.00000000       0.00000000       0.00000000  -16826.87109375
H        0.00000000       0.00000000       0.18000000       0.00000000       0.00000000   16826.87109375
2
Properties=species:S:1:pos:R:3:forces:R:3 energy=426.0556374521097 pbc="F F F"
H        0.00000000       0.00000000       0.00000000       0.00000000       0.00000000  -21059.92578125
H        0.00000000       0.00000000       0.23878788       0.00000000       0.00000000   21059.92578125
2
Properties=species:S:1:pos:R:3:forces:R:3 energy=0.13657698343598548 pbc="F F F"
H        0.00000000       0.00000000       0.00000000       0.00000000       0.00000000     167.41162109
H        0.00000000       0.00000000       0.29757576       0.00000000       0.00000000    -167.41162109
2
Properties=species:S:1:pos:R:3:forces:R:3 energy=1.5210433933172018 pbc="F F F"
H        0.00000000       0.00000000       0.00000000       0.00000000       0.00000000     -38.96588898
H        0.00000000       0.00000000       0.35636364       0.00000000       0.00000000      38.96588898
2
Properties=species:S:1:pos:R:3:forces:R:3 energy=-1.888199236291703 pbc="F F F"
H        0.00000000       0.00000000       0.00000000       0.00000000       0.00000000     -50.45275116
H        0.00000000       0.00000000       0.41515152       0.00000000       0.00000000      50.45275116
2
Properties=species:S:1:pos:R:3:forces:R:3 energy=-3.9299959197153873 pbc="F F F"
H        0.00000000       0.00000000       0.00000000       0.00000000       0.00000000     -22.18790817
H        0.00000000       0.00000000       0.47393939       0.00000000       0.00000000      22.18790817
2
Properties=species:S:1:pos:R:3:forces:R:3 energy=-5.175805002040209 pbc="F F F"
H        0.00000000       0.00000000       0.00000000       0.00000000       0.00000000     -20.05286407
H        0.00000000       0.00000000       0.53272727       0.00000000       0.00000000      20.05286407
2
Properties=species:S:1:pos:R:3:forces:R:3 energy=-6.1244477964065265 pbc="F F F"
H        0.00000000       0.00000000       0.00000000       0.00000000       0.00000000     -12.06492138
H        0.00000000       0.00000000       0.59151515       0.00000000       0.00000000      12.06492138
2
Properties=species:S:1:pos:R:3:forces:R:3 energy=-6.642140399713966 pbc="F F F"
H        0.00000000       0.00000000       0.00000000       0.00000000       0.00000000      -5.86759424
H        0.00000000       0.00000000       0.65030303       0.00000000       0.00000000       5.86759424
2
Properties=species:S:1:pos:R:3:forces:R:3 energy=-6.836845118412734 pbc="F F F"
H        0.00000000       0.00000000       0.00000000       0.00000000       0.00000000      -1.13496804
H        0.00000000       0.00000000       0.70909091       0.00000000       0.00000000       1.13496804
2
Properties=species:S:1:pos:R:3:forces:R:3 energy=-6.829425630495687 pbc="F F F"
H        0.00000000       0.00000000       0.00000000       0.00000000       0.00000000       1.00549448
H        0.00000000       0.00000000       0.76787879       0.00000000       0.00000000      -1.00549448
2
Properties=species:S:1:pos:R:3:forces:R:3 energy=-6.743307462624515 pbc="F F F"
H        0.00000000       0.00000000       0.00000000       0.00000000       0.00000000       1.90763056
H        0.00000000       0.00000000       0.82666667       0.00000000       0.00000000      -1.90763056
2
Properties=species:S:1:pos:R:3:forces:R:3 energy=-6.595929185609598 pbc="F F F"
H        0.00000000       0.00000000       0.00000000       0.00000000       0.00000000       3.16910911
H        0.00000000       0.00000000       0.88545455       0.00000000       0.00000000      -3.16910911
2
Properties=species:S:1:pos:R:3:forces:R:3 energy=-6.37274040017151 pbc="F F F"
H        0.00000000       0.00000000       0.00000000       0.00000000       0.00000000       4.35167217
H        0.00000000       0.00000000       0.94424242       0.00000000       0.00000000      -4.35167217
2
Properties=species:S:1:pos:R:3:forces:R:3 energy=-6.094544899615707 pbc="F F F"
H        0.00000000       0.00000000       0.00000000       0.00000000       0.00000000       5.02113724
H        0.00000000       0.00000000       1.00303030       0.00000000       0.00000000      -5.02113724
2
Properties=species:S:1:pos:R:3:forces:R:3 energy=-5.790773104411895 pbc="F F F"
H        0.00000000       0.00000000       0.00000000       0.00000000       0.00000000       5.28517389
H        0.00000000       0.00000000       1.06181818       0.00000000       0.00000000      -5.28517389
2
Properties=species:S:1:pos:R:3:forces:R:3 energy=-5.471454716782892 pbc="F F F"
H        0.00000000       0.00000000       0.00000000       0.00000000       0.00000000       5.59852362
H        0.00000000       0.00000000       1.12060606       0.00000000       0.00000000      -5.59852362
2
Properties=species:S:1:pos:R:3:forces:R:3 energy=-5.136510633009551 pbc="F F F"
H        0.00000000       0.00000000       0.00000000       0.00000000       0.00000000       5.69988155
H        0.00000000       0.00000000       1.17939394       0.00000000       0.00000000      -5.69988155
2
Properties=species:S:1:pos:R:3:forces:R:3 energy=-4.8152078545298 pbc="F F F"
H        0.00000000       0.00000000       0.00000000       0.00000000       0.00000000       5.12996435
H        0.00000000       0.00000000       1.23818182       0.00000000       0.00000000      -5.12996435
2
Properties=species:S:1:pos:R:3:forces:R:3 energy=-4.538861517310161 pbc="F F F"
H        0.00000000       0.00000000       0.00000000       0.00000000       0.00000000       4.28278732
H        0.00000000       0.00000000       1.29696970       0.00000000       0.00000000      -4.28278732
2
Properties=species:S:1:pos:R:3:forces:R:3 energy=-4.305429637753649 pbc="F F F"
H        0.00000000       0.00000000       0.00000000       0.00000000       0.00000000       3.73556256
H        0.00000000       0.00000000       1.35575758       0.00000000       0.00000000      -3.73556256
2
Properties=species:S:1:pos:R:3:forces:R:3 energy=-4.090848759641191 pbc="F F F"
H        0.00000000       0.00000000       0.00000000       0.00000000       0.00000000       3.62423563
H        0.00000000       0.00000000       1.41454545       0.00000000       0.00000000      -3.62423563
2
Properties=species:S:1:pos:R:3:forces:R:3 energy=-3.875254377355195 pbc="F F F"
H        0.00000000       0.00000000       0.00000000       0.00000000       0.00000000       3.71894836
H        0.00000000       0.00000000       1.47333333       0.00000000       0.00000000      -3.71894836
2
Properties=species:S:1:pos:R:3:forces:R:3 energy=-3.655028026573826 pbc="F F F"
H        0.00000000       0.00000000       0.00000000       0.00000000       0.00000000       3.74595046
H        0.00000000       0.00000000       1.53212121       0.00000000       0.00000000      -3.74595046
2
Properties=species:S:1:pos:R:3:forces:R:3 energy=-3.43876397607628 pbc="F F F"
H        0.00000000       0.00000000       0.00000000       0.00000000       0.00000000       3.57660341
H        0.00000000       0.00000000       1.59090909       0.00000000       0.00000000      -3.57660341
2
Properties=species:S:1:pos:R:3:forces:R:3 energy=-3.23813541989696 pbc="F F F"
H        0.00000000       0.00000000       0.00000000       0.00000000       0.00000000       3.22405100
H        0.00000000       0.00000000       1.64969697       0.00000000       0.00000000      -3.22405100
2
Properties=species:S:1:pos:R:3:forces:R:3 energy=-3.0617921575551605 pbc="F F F"
H        0.00000000       0.00000000       0.00000000       0.00000000       0.00000000       2.76451182
H        0.00000000       0.00000000       1.70848485       0.00000000       0.00000000      -2.76451182
2
Properties=species:S:1:pos:R:3:forces:R:3 energy=-2.913652088497114 pbc="F F F"
H        0.00000000       0.00000000       0.00000000       0.00000000       0.00000000       2.27580905
H        0.00000000       0.00000000       1.76727273       0.00000000       0.00000000      -2.27580905
2
Properties=species:S:1:pos:R:3:forces:R:3 energy=-2.7936934805981446 pbc="F F F"
H        0.00000000       0.00000000       0.00000000       0.00000000       0.00000000       1.81261456
H        0.00000000       0.00000000       1.82606061       0.00000000       0.00000000      -1.81261456
2
Properties=species:S:1:pos:R:3:forces:R:3 energy=-2.6994379273890377 pbc="F F F"
H        0.00000000       0.00000000       0.00000000       0.00000000       0.00000000       1.40465593
H        0.00000000       0.00000000       1.88484848       0.00000000       0.00000000      -1.40465593
2
Properties=species:S:1:pos:R:3:forces:R:3 energy=-2.6272328117894523 pbc="F F F"
H        0.00000000       0.00000000       0.00000000       0.00000000       0.00000000       1.06310511
H        0.00000000       0.00000000       1.94363636       0.00000000       0.00000000      -1.06310511
2
Properties=species:S:1:pos:R:3:forces:R:3 energy=-2.5731394058116104 pbc="F F F"
H        0.00000000       0.00000000       0.00000000       0.00000000       0.00000000       0.78782046
H        0.00000000       0.00000000       2.00242424       0.00000000       0.00000000      -0.78782046
2
Properties=species:S:1:pos:R:3:forces:R:3 energy=-2.5334233044081222 pbc="F F F"
H        0.00000000       0.00000000       0.00000000       0.00000000       0.00000000       0.57269365
H        0.00000000       0.00000000       2.06121212       0.00000000       0.00000000      -0.57269365
2
Properties=species:S:1:pos:R:3:forces:R:3 energy=-2.504794271988711 pbc="F F F"
H        0.00000000       0.00000000       0.00000000       0.00000000       0.00000000       0.40911514
H        0.00000000       0.00000000       2.12000000       0.00000000       0.00000000      -0.40911514
2
Properties=species:S:1:pos:R:3:forces:R:3 energy=-2.484490643884138 pbc="F F F"
H        0.00000000       0.00000000       0.00000000       0.00000000       0.00000000       0.28794655
H        0.00000000       0.00000000       2.17878788       0.00000000       0.00000000      -0.28794655
2
Properties=species:S:1:pos:R:3:forces:R:3 energy=-2.470277656822187 pbc="F F F"
H        0.00000000       0.00000000       0.00000000       0.00000000       0.00000000       0.20056251
H        0.00000000       0.00000000       2.23757576       0.00000000       0.00000000      -0.20056251
2
Properties=species:S:1:pos:R:3:forces:R:3 energy=-2.4603980979646916 pbc="F F F"
H        0.00000000       0.00000000       0.00000000       0.00000000       0.00000000       0.13932049
H        0.00000000       0.00000000       2.29636364       0.00000000       0.00000000      -0.13932049
2
Properties=species:S:1:pos:R:3:forces:R:3 energy=-2.4535126996687957 pbc="F F F"
H        0.00000000       0.00000000       0.00000000       0.00000000       0.00000000       0.09771852
H        0.00000000       0.00000000       2.35515152       0.00000000       0.00000000      -0.09771852
2
Properties=species:S:1:pos:R:3:forces:R:3 energy=-2.4486300462065964 pbc="F F F"
H        0.00000000       0.00000000       0.00000000       0.00000000       0.00000000       0.07038835
H        0.00000000       0.00000000       2.41393939       0.00000000       0.00000000      -0.07038835
2
Properties=species:S:1:pos:R:3:forces:R:3 energy=-2.4450419626271915 pbc="F F F"
H        0.00000000       0.00000000       0.00000000       0.00000000       0.00000000       0.05302045
H        0.00000000       0.00000000       2.47272727       0.00000000       0.00000000      -0.05302045
2
Properties=species:S:1:pos:R:3:forces:R:3 energy=-2.4422672482689953 pbc="F F F"
H        0.00000000       0.00000000       0.00000000       0.00000000       0.00000000       0.04224657
H        0.00000000       0.00000000       2.53151515       0.00000000       0.00000000      -0.04224657
2
Properties=species:S:1:pos:R:3:forces:R:3 energy=-2.4399958925539043 pbc="F F F"
H        0.00000000       0.00000000       0.00000000       0.00000000       0.00000000       0.03554530
H        0.00000000       0.00000000       2.59030303       0.00000000       0.00000000      -0.03554530
2
Properties=species:S:1:pos:R:3:forces:R:3 energy=-2.438043529614108 pbc="F F F"
H        0.00000000       0.00000000       0.00000000       0.00000000       0.00000000       0.03114358
H        0.00000000       0.00000000       2.64909091       0.00000000       0.00000000      -0.03114358
2
Properties=species:S:1:pos:R:3:forces:R:3 energy=-2.436311634565695 pbc="F F F"
H        0.00000000       0.00000000       0.00000000       0.00000000       0.00000000       0.02791962
H        0.00000000       0.00000000       2.70787879       0.00000000       0.00000000      -0.02791962
2
Properties=species:S:1:pos:R:3:forces:R:3 energy=-2.434748652964725 pbc="F F F"
H        0.00000000       0.00000000       0.00000000       0.00000000       0.00000000       0.02530193
H        0.00000000       0.00000000       2.76666667       0.00000000       0.00000000      -0.02530193
2
Properties=species:S:1:pos:R:3:forces:R:3 energy=-2.433327122424085 pbc="F F F"
H        0.00000000       0.00000000       0.00000000       0.00000000       0.00000000       0.02315433
H        0.00000000       0.00000000       2.82545455       0.00000000       0.00000000      -0.02315433
2
Properties=species:S:1:pos:R:3:forces:R:3 energy=-2.4320143438614448 pbc="F F F"
H        0.00000000       0.00000000       0.00000000       0.00000000       0.00000000       0.02164346
H        0.00000000       0.00000000       2.88424242       0.00000000       0.00000000      -0.02164346
2
Properties=species:S:1:pos:R:3:forces:R:3 energy=-2.4307640402147985 pbc="F F F"
H        0.00000000       0.00000000       0.00000000       0.00000000       0.00000000       0.02109159
H        0.00000000       0.00000000       2.94303030       0.00000000       0.00000000      -0.02109159
2
Properties=species:S:1:pos:R:3:forces:R:3 energy=-2.4295094442835588 pbc="F F F"
H        0.00000000       0.00000000       0.00000000       0.00000000       0.00000000       0.02184308
H        0.00000000       0.00000000       3.00181818       0.00000000       0.00000000      -0.02184308
2
Properties=species:S:1:pos:R:3:forces:R:3 energy=-2.428165445287725 pbc="F F F"
H        0.00000000       0.00000000       0.00000000       0.00000000       0.00000000       0.02414693
H        0.00000000       0.00000000       3.06060606       0.00000000       0.00000000      -0.02414693
2
Properties=species:S:1:pos:R:3:forces:R:3 energy=-2.426637412335199 pbc="F F F"
H        0.00000000       0.00000000       0.00000000       0.00000000       0.00000000       0.02809044
H        0.00000000       0.00000000       3.11939394       0.00000000       0.00000000      -0.02809044
2
Properties=species:S:1:pos:R:3:forces:R:3 energy=-2.4248319251387387 pbc="F F F"
H        0.00000000       0.00000000       0.00000000       0.00000000       0.00000000       0.03358017
H        0.00000000       0.00000000       3.17818182       0.00000000       0.00000000      -0.03358017
2
Properties=species:S:1:pos:R:3:forces:R:3 energy=-2.4226634470633233 pbc="F F F"
H        0.00000000       0.00000000       0.00000000       0.00000000       0.00000000       0.04038379
H        0.00000000       0.00000000       3.23696970       0.00000000       0.00000000      -0.04038379
2
Properties=species:S:1:pos:R:3:forces:R:3 energy=-2.420064104148679 pbc="F F F"
H        0.00000000       0.00000000       0.00000000       0.00000000       0.00000000       0.04818318
H        0.00000000       0.00000000       3.29575758       0.00000000       0.00000000      -0.04818318
2
Properties=species:S:1:pos:R:3:forces:R:3 energy=-2.41698487551927 pbc="F F F"
H        0.00000000       0.00000000       0.00000000       0.00000000       0.00000000       0.05665728
H        0.00000000       0.00000000       3.35454545       0.00000000       0.00000000      -0.05665728
2
Properties=species:S:1:pos:R:3:forces:R:3 energy=-2.4133951141712733 pbc="F F F"
H        0.00000000       0.00000000       0.00000000       0.00000000       0.00000000       0.06553269
H        0.00000000       0.00000000       3.41333333       0.00000000       0.00000000      -0.06553269
2
Properties=species:S:1:pos:R:3:forces:R:3 energy=-2.4092756341207116 pbc="F F F"
H        0.00000000       0.00000000       0.00000000       0.00000000       0.00000000       0.07463089
H        0.00000000       0.00000000       3.47212121       0.00000000       0.00000000      -0.07463089
2
Properties=species:S:1:pos:R:3:forces:R:3 energy=-2.4046167997880046 pbc="F F F"
H        0.00000000       0.00000000       0.00000000       0.00000000       0.00000000       0.08387712
H        0.00000000       0.00000000       3.53090909       0.00000000       0.00000000      -0.08387712
2
Properties=species:S:1:pos:R:3:forces:R:3 energy=-2.3994104156085148 pbc="F F F"
H        0.00000000       0.00000000       0.00000000       0.00000000       0.00000000       0.09328660
H        0.00000000       0.00000000       3.58969697       0.00000000       0.00000000      -0.09328660
2
Properties=species:S:1:pos:R:3:forces:R:3 energy=-2.3936444808238035 pbc="F F F"
H        0.00000000       0.00000000       0.00000000       0.00000000       0.00000000       0.10292538
H        0.00000000       0.00000000       3.64848485       0.00000000       0.00000000      -0.10292538
2
Properties=species:S:1:pos:R:3:forces:R:3 energy=-2.387303661765048 pbc="F F F"
H        0.00000000       0.00000000       0.00000000       0.00000000       0.00000000       0.11285122
H        0.00000000       0.00000000       3.70727273       0.00000000       0.00000000      -0.11285122
2
Properties=species:S:1:pos:R:3:forces:R:3 energy=-2.3803704796891734 pbc="F F F"
H        0.00000000       0.00000000       0.00000000       0.00000000       0.00000000       0.12303795
H        0.00000000       0.00000000       3.76606061       0.00000000       0.00000000      -0.12303795
2
Properties=species:S:1:pos:R:3:forces:R:3 energy=-2.372835084158699 pbc="F F F"
H        0.00000000       0.00000000       0.00000000       0.00000000       0.00000000       0.13330843
H        0.00000000       0.00000000       3.82484848       0.00000000       0.00000000      -0.13330843
2
Properties=species:S:1:pos:R:3:forces:R:3 energy=-2.3647026396619317 pbc="F F F"
H        0.00000000       0.00000000       0.00000000       0.00000000       0.00000000       0.14329423
H        0.00000000       0.00000000       3.88363636       0.00000000       0.00000000      -0.14329423
2
Properties=species:S:1:pos:R:3:forces:R:3 energy=-2.3560038143970408 pbc="F F F"
H        0.00000000       0.00000000       0.00000000       0.00000000       0.00000000       0.15245323
H        0.00000000       0.00000000       3.94242424       0.00000000       0.00000000      -0.15245323
2
Properties=species:S:1:pos:R:3:forces:R:3 energy=-2.3468066972412327 pbc="F F F"
H        0.00000000       0.00000000       0.00000000       0.00000000       0.00000000       0.16014022
H        0.00000000       0.00000000       4.00121212       0.00000000       0.00000000      -0.16014022
2
Properties=species:S:1:pos:R:3:forces:R:3 energy=-2.337216796166843 pbc="F F F"
H        0.00000000       0.00000000       0.00000000       0.00000000       0.00000000       0.16570896
H        0.00000000       0.00000000       4.06000000       0.00000000       0.00000000      -0.16570896
2
Properties=species:S:1:pos:R:3:forces:R:3 energy=-2.32737560664092 pbc="F F F"
H        0.00000000       0.00000000       0.00000000       0.00000000       0.00000000       0.16860096
H        0.00000000       0.00000000       4.11878788       0.00000000       0.00000000      -0.16860096
2
Properties=species:S:1:pos:R:3:forces:R:3 energy=-2.3174544114057465 pbc="F F F"
H        0.00000000       0.00000000       0.00000000       0.00000000       0.00000000       0.16839759
H        0.00000000       0.00000000       4.17757576       0.00000000       0.00000000      -0.16839759
2
Properties=species:S:1:pos:R:3:forces:R:3 energy=-2.3076425975229844 pbc="F F F"
H        0.00000000       0.00000000       0.00000000       0.00000000       0.00000000       0.16481778
H        0.00000000       0.00000000       4.23636364       0.00000000       0.00000000      -0.16481778
2
Properties=species:S:1:pos:R:3:forces:R:3 energy=-2.2981445565361724 pbc="F F F"
H        0.00000000       0.00000000       0.00000000       0.00000000       0.00000000       0.15771645
H        0.00000000       0.00000000       4.29515152       0.00000000       0.00000000      -0.15771645
2
Properties=species:S:1:pos:R:3:forces:R:3 energy=-2.289167050265921 pbc="F F F"
H        0.00000000       0.00000000       0.00000000       0.00000000       0.00000000       0.14715658
H        0.00000000       0.00000000       4.35393939       0.00000000       0.00000000      -0.14715658
2
Properties=species:S:1:pos:R:3:forces:R:3 energy=-2.2809041895979765 pbc="F F F"
H        0.00000000       0.00000000       0.00000000       0.00000000       0.00000000       0.13348672
H        0.00000000       0.00000000       4.41272727       0.00000000       0.00000000      -0.13348672
2
Properties=species:S:1:pos:R:3:forces:R:3 energy=-2.2735186005044103 pbc="F F F"
H        0.00000000       0.00000000       0.00000000       0.00000000       0.00000000       0.11744903
H        0.00000000       0.00000000       4.47151515       0.00000000       0.00000000      -0.11744903
2
Properties=species:S:1:pos:R:3:forces:R:3 energy=-2.267119968920608 pbc="F F F"
H        0.00000000       0.00000000       0.00000000       0.00000000       0.00000000       0.10013318
H        0.00000000       0.00000000       4.53030303       0.00000000       0.00000000      -0.10013318
2
Properties=species:S:1:pos:R:3:forces:R:3 energy=-2.2617459672836873 pbc="F F F"
H        0.00000000       0.00000000       0.00000000       0.00000000       0.00000000       0.08279365
H        0.00000000       0.00000000       4.58909091       0.00000000       0.00000000      -0.08279365
2
Properties=species:S:1:pos:R:3:forces:R:3 energy=-2.2573639250959636 pbc="F F F"
H        0.00000000       0.00000000       0.00000000       0.00000000       0.00000000       0.06652886
H        0.00000000       0.00000000       4.64787879       0.00000000       0.00000000      -0.06652886
2
Properties=species:S:1:pos:R:3:forces:R:3 energy=-2.2538894275787547 pbc="F F F"
H        0.00000000       0.00000000       0.00000000       0.00000000       0.00000000       0.05198744
H        0.00000000       0.00000000       4.70666667       0.00000000       0.00000000      -0.05198744
2
Properties=species:S:1:pos:R:3:forces:R:3 energy=-2.2512161183165014 pbc="F F F"
H        0.00000000       0.00000000       0.00000000       0.00000000       0.00000000       0.03923040
H        0.00000000       0.00000000       4.76545455       0.00000000       0.00000000      -0.03923040
2
Properties=species:S:1:pos:R:3:forces:R:3 energy=-2.2492502719553737 pbc="F F F"
H        0.00000000       0.00000000       0.00000000       0.00000000       0.00000000       0.02780643
H        0.00000000       0.00000000       4.82424242       0.00000000       0.00000000      -0.02780643
2
Properties=species:S:1:pos:R:3:forces:R:3 energy=-2.2479332063911612 pbc="F F F"
H        0.00000000       0.00000000       0.00000000       0.00000000       0.00000000       0.01707439
H        0.00000000       0.00000000       4.88303030       0.00000000       0.00000000      -0.01707439
2
Properties=species:S:1:pos:R:3:forces:R:3 energy=-2.247237945527879 pbc="F F F"
H        0.00000000       0.00000000       0.00000000       0.00000000       0.00000000       0.00661955
H        0.00000000       0.00000000       4.94181818       0.00000000       0.00000000      -0.00661955
2
Properties=species:S:1:pos:R:3:forces:R:3 energy=-2.247145855519195 pbc="F F F"
H        0.00000000       0.00000000       0.00000000       0.00000000       0.00000000      -0.00334529
H        0.00000000       0.00000000       5.00060606       0.00000000       0.00000000       0.00334529
2
Properties=species:S:1:pos:R:3:forces:R:3 energy=-2.2476020616573242 pbc="F F F"
H        0.00000000       0.00000000       0.00000000       0.00000000       0.00000000      -0.01179125
H        0.00000000       0.00000000       5.05939394       0.00000000       0.00000000       0.01179125
2
Properties=species:S:1:pos:R:3:forces:R:3 energy=-2.2484708639502435 pbc="F F F"
H        0.00000000       0.00000000       0.00000000       0.00000000       0.00000000      -0.01709486
H        0.00000000       0.00000000       5.11818182       0.00000000       0.00000000       0.01709486
2
Properties=species:S:1:pos:R:3:forces:R:3 energy=-2.2495195257720004 pbc="F F F"
H        0.00000000       0.00000000       0.00000000       0.00000000       0.00000000      -0.01771532
H        0.00000000       0.00000000       5.17696970       0.00000000       0.00000000       0.01771532
2
Properties=species:S:1:pos:R:3:forces:R:3 energy=-2.250451175898865 pbc="F F F"
H        0.00000000       0.00000000       0.00000000       0.00000000       0.00000000      -0.01318025
H        0.00000000       0.00000000       5.23575758       0.00000000       0.00000000       0.01318025
2
Properties=species:S:1:pos:R:3:forces:R:3 energy=-2.2509932623218947 pbc="F F F"
H        0.00000000       0.00000000       0.00000000       0.00000000       0.00000000      -0.00483652
H        0.00000000       0.00000000       5.29454545       0.00000000       0.00000000       0.00483652
2
Properties=species:S:1:pos:R:3:forces:R:3 energy=-2.2510055561355062 pbc="F F F"
H        0.00000000       0.00000000       0.00000000       0.00000000       0.00000000       0.00420963
H        0.00000000       0.00000000       5.35333333       0.00000000       0.00000000      -0.00420963
2
Properties=species:S:1:pos:R:3:forces:R:3 energy=-2.250564790145427 pbc="F F F"
H        0.00000000       0.00000000       0.00000000       0.00000000       0.00000000       0.00986984
H        0.00000000       0.00000000       5.41212121       0.00000000       0.00000000      -0.00986984
2
Properties=species:S:1:pos:R:3:forces:R:3 energy=-2.2499803951507564 pbc="F F F"
H        0.00000000       0.00000000       0.00000000       0.00000000       0.00000000       0.00882830
H        0.00000000       0.00000000       5.47090909       0.00000000       0.00000000      -0.00882830
2
Properties=species:S:1:pos:R:3:forces:R:3 energy=-2.249601619004113 pbc="F F F"
H        0.00000000       0.00000000       0.00000000       0.00000000       0.00000000       0.00441027
H        0.00000000       0.00000000       5.52969697       0.00000000       0.00000000      -0.00441027
2
Properties=species:S:1:pos:R:3:forces:R:3 energy=-2.2492848997039134 pbc="F F F"
H        0.00000000       0.00000000       0.00000000       0.00000000       0.00000000       0.00856192
H        0.00000000       0.00000000       5.58848485       0.00000000       0.00000000      -0.00856192
2
Properties=species:S:1:pos:R:3:forces:R:3 energy=-2.248406740480238 pbc="F F F"
H        0.00000000       0.00000000       0.00000000       0.00000000       0.00000000       0.02154406
H        0.00000000       0.00000000       5.64727273       0.00000000       0.00000000      -0.02154406
2
Properties=species:S:1:pos:R:3:forces:R:3 energy=-2.246920141887745 pbc="F F F"
H        0.00000000       0.00000000       0.00000000       0.00000000       0.00000000       0.02640224
H        0.00000000       0.00000000       5.70606061       0.00000000       0.00000000      -0.02640224
2
Properties=species:S:1:pos:R:3:forces:R:3 energy=-2.24561829312538 pbc="F F F"
H        0.00000000       0.00000000       0.00000000       0.00000000       0.00000000       0.01589960
H        0.00000000       0.00000000       5.76484848       0.00000000       0.00000000      -0.01589960
2
Properties=species:S:1:pos:R:3:forces:R:3 energy=-2.245097928314308 pbc="F F F"
H        0.00000000       0.00000000       0.00000000       0.00000000       0.00000000       0.00277196
H        0.00000000       0.00000000       5.82363636       0.00000000       0.00000000      -0.00277196
2
Properties=species:S:1:pos:R:3:forces:R:3 energy=-2.245114403560856 pbc="F F F"
H        0.00000000       0.00000000       0.00000000       0.00000000       0.00000000      -0.00184037
H        0.00000000       0.00000000       5.88242424       0.00000000       0.00000000       0.00184037
2
Properties=species:S:1:pos:R:3:forces:R:3 energy=-2.2452034930624682 pbc="F F F"
H        0.00000000       0.00000000       0.00000000       0.00000000       0.00000000      -0.00081512
H        0.00000000       0.00000000       5.94121212       0.00000000       0.00000000       0.00081512
2
Properties=species:S:1:pos:R:3:forces:R:3 energy=-2.245216400337344 pbc="F F F"
H        0.00000000       0.00000000       0.00000000       0.00000000       0.00000000       0.00008987
H        0.00000000       0.00000000       6.00000000       0.00000000       0.00000000      -0.00008987
