2
Properties=species:S:1:pos:R:3:forces:R:3 energy=5424.23510885517 pbc="F F F"
Kr       0.00000000       0.00000000       0.00000000       0.00000000       0.00000000  -87412.94531250
Kr       0.00000000       0.00000000       0.18000000       0.00000000       0.00000000   87412.94531250
2
Properties=species:S:1:pos:R:3:forces:R:3 energy=2278.5273451832954 pbc="F F F"
Kr       0.00000000       0.00000000       0.00000000       0.00000000       0.00000000  -31023.98046875
Kr       0.00000000       0.00000000       0.23878788       0.00000000       0.00000000   31023.98046875
2
Properties=species:S:1:pos:R:3:forces:R:3 energy=1073.3518080739204 pbc="F F F"
Kr       0.00000000       0.00000000       0.00000000       0.00000000       0.00000000  -13002.46582031
Kr       0.00000000       0.00000000       0.29757576       0.00000000       0.00000000   13002.46582031
2
Properties=species:S:1:pos:R:3:forces:R:3 energy=542.1067519215766 pbc="F F F"
Kr       0.00000000       0.00000000       0.00000000       0.00000000       0.00000000   -6076.77636719
Kr       0.00000000       0.00000000       0.35636364       0.00000000       0.00000000    6076.77636719
2
Properties=species:S:1:pos:R:3:forces:R:3 energy=284.5986647649574 pbc="F F F"
Kr       0.00000000       0.00000000       0.00000000       0.00000000       0.00000000   -3071.30834961
Kr       0.00000000       0.00000000       0.41515152       0.00000000       0.00000000    3071.30834961
2
Properties=species:S:1:pos:R:3:forces:R:3 energy=151.08490133959887 pbc="F F F"
Kr       0.00000000       0.00000000       0.00000000       0.00000000       0.00000000   -1634.49023438
Kr       0.00000000       0.00000000       0.47393939       0.00000000       0.00000000    1634.49023438
2
Properties=species:S:1:pos:R:3:forces:R:3 energy=79.20068503496489 pbc="F F F"
Kr       0.00000000       0.00000000       0.00000000       0.00000000       0.00000000    -888.42211914
Kr       0.00000000       0.00000000       0.53272727       0.00000000       0.00000000     888.42211914
2
Properties=species:S:1:pos:R:3:forces:R:3 energy=39.92657233988452 pbc="F F F"
Kr       0.00000000       0.00000000       0.00000000       0.00000000       0.00000000    -490.02246094
Kr       0.00000000       0.00000000       0.59151515       0.00000000       0.00000000     490.02246094
2
Properties=species:S:1:pos:R:3:forces:R:3 energy=17.4895720763137 pbc="F F F"
Kr       0.00000000       0.00000000       0.00000000       0.00000000       0.00000000    -291.57128906
Kr       0.00000000       0.00000000       0.65030303       0.00000000       0.00000000     291.57128906
2
Properties=species:S:1:pos:R:3:forces:R:3 energy=4.184855983507228 pbc="F F F"
Kr       0.00000000       0.00000000       0.00000000       0.00000000       0.00000000    -174.90234375
Kr       0.00000000       0.00000000       0.70909091       0.00000000       0.00000000     174.90234375
2
Properties=species:S:1:pos:R:3:forces:R:3 energy=-4.2398914581912095 pbc="F F F"
Kr       0.00000000       0.00000000       0.00000000       0.00000000       0.00000000    -116.82088470
Kr       0.00000000       0.00000000       0.76787879       0.00000000       0.00000000     116.82088470
2
Properties=species:S:1:pos:R:3:forces:R:3 energy=-9.91496790485752 pbc="F F F"
Kr       0.00000000       0.00000000       0.00000000       0.00000000       0.00000000     -78.73943329
Kr       0.00000000       0.00000000       0.82666667       0.00000000       0.00000000      78.73943329
2
Properties=species:S:1:pos:R:3:forces:R:3 energy=-13.768137291435732 pbc="F F F"
Kr       0.00000000       0.00000000       0.00000000       0.00000000       0.00000000     -54.22470474
Kr       0.00000000       0.00000000       0.88545455       0.00000000       0.00000000      54.22470474
2
Properties=species:S:1:pos:R:3:forces:R:3 energy=-16.446573494704875 pbc="F F F"
Kr       0.00000000       0.00000000       0.00000000       0.00000000       0.00000000     -37.76813889
Kr       0.00000000       0.00000000       0.94424242       0.00000000       0.00000000      37.76813889
2
Properties=species:S:1:pos:R:3:forces:R:3 energy=-18.283950938384518 pbc="F F F"
Kr       0.00000000       0.00000000       0.00000000       0.00000000       0.00000000     -25.28265762
Kr       0.00000000       0.00000000       1.00303030       0.00000000       0.00000000      25.28265762
2
Properties=species:S:1:pos:R:3:forces:R:3 energy=-19.483570091421278 pbc="F F F"
Kr       0.00000000       0.00000000       0.00000000       0.00000000       0.00000000     -16.08584595
Kr       0.00000000       0.00000000       1.06181818       0.00000000       0.00000000      16.08584595
2
Properties=species:S:1:pos:R:3:forces:R:3 energy=-20.23706798349626 pbc="F F F"
Kr       0.00000000       0.00000000       0.00000000       0.00000000       0.00000000     -10.01390648
Kr       0.00000000       0.00000000       1.12060606       0.00000000       0.00000000      10.01390648
2
Properties=species:S:1:pos:R:3:forces:R:3 energy=-20.70517878015783 pbc="F F F"
Kr       0.00000000       0.00000000       0.00000000       0.00000000       0.00000000      -6.18689728
Kr       0.00000000       0.00000000       1.17939394       0.00000000       0.00000000       6.18689728
2
Properties=species:S:1:pos:R:3:forces:R:3 energy=-20.9853412801986 pbc="F F F"
Kr       0.00000000       0.00000000       0.00000000       0.00000000       0.00000000      -3.44570279
Kr       0.00000000       0.00000000       1.23818182       0.00000000       0.00000000       3.44570279
2
Properties=species:S:1:pos:R:3:forces:R:3 energy=-21.119953921330207 pbc="F F F"
Kr       0.00000000       0.00000000       0.00000000       0.00000000       0.00000000      -1.23519516
Kr       0.00000000       0.00000000       1.29696970       0.00000000       0.00000000       1.23519516
2
Properties=species:S:1:pos:R:3:forces:R:3 energy=-21.1483099753142 pbc="F F F"
Kr       0.00000000       0.00000000       0.00000000       0.00000000       0.00000000       0.07466935
Kr       0.00000000       0.00000000       1.35575758       0.00000000       0.00000000      -0.07466935
2
Properties=species:S:1:pos:R:3:forces:R:3 energy=-21.135432843800942 pbc="F F F"
Kr       0.00000000       0.00000000       0.00000000       0.00000000       0.00000000       0.17603573
Kr       0.00000000       0.00000000       1.41454545       0.00000000       0.00000000      -0.17603573
2
Properties=species:S:1:pos:R:3:forces:R:3 energy=-21.14370043192731 pbc="F F F"
Kr       0.00000000       0.00000000       0.00000000       0.00000000       0.00000000      -0.53637743
Kr       0.00000000       0.00000000       1.47333333       0.00000000       0.00000000       0.53637743
2
Properties=species:S:1:pos:R:3:forces:R:3 energy=-21.201881253779447 pbc="F F F"
Kr       0.00000000       0.00000000       0.00000000       0.00000000       0.00000000      -1.43391871
Kr       0.00000000       0.00000000       1.53212121       0.00000000       0.00000000       1.43391871
2
Properties=species:S:1:pos:R:3:forces:R:3 energy=-21.308975827787485 pbc="F F F"
Kr       0.00000000       0.00000000       0.00000000       0.00000000       0.00000000      -2.17131305
Kr       0.00000000       0.00000000       1.59090909       0.00000000       0.00000000       2.17131305
2
Properties=species:S:1:pos:R:3:forces:R:3 energy=-21.4524642826796 pbc="F F F"
Kr       0.00000000       0.00000000       0.00000000       0.00000000       0.00000000      -2.67034388
Kr       0.00000000       0.00000000       1.64969697       0.00000000       0.00000000       2.67034388
2
Properties=species:S:1:pos:R:3:forces:R:3 energy=-21.618365714963414 pbc="F F F"
Kr       0.00000000       0.00000000       0.00000000       0.00000000       0.00000000      -2.93590355
Kr       0.00000000       0.00000000       1.70848485       0.00000000       0.00000000       2.93590355
2
Properties=species:S:1:pos:R:3:forces:R:3 energy=-21.79341637789684 pbc="F F F"
Kr       0.00000000       0.00000000       0.00000000       0.00000000       0.00000000      -2.98592234
Kr       0.00000000       0.00000000       1.76727273       0.00000000       0.00000000       2.98592234
2
Properties=species:S:1:pos:R:3:forces:R:3 energy=-21.965952787864847 pbc="F F F"
Kr       0.00000000       0.00000000       0.00000000       0.00000000       0.00000000      -2.85897398
Kr       0.00000000       0.00000000       1.82606061       0.00000000       0.00000000       2.85897398
2
Properties=species:S:1:pos:R:3:forces:R:3 energy=-22.12727928780551 pbc="F F F"
Kr       0.00000000       0.00000000       0.00000000       0.00000000       0.00000000      -2.61567879
Kr       0.00000000       0.00000000       1.88484848       0.00000000       0.00000000       2.61567879
2
Properties=species:S:1:pos:R:3:forces:R:3 energy=-22.27251682051944 pbc="F F F"
Kr       0.00000000       0.00000000       0.00000000       0.00000000       0.00000000      -2.32218289
Kr       0.00000000       0.00000000       1.94363636       0.00000000       0.00000000       2.32218289
2
Properties=species:S:1:pos:R:3:forces:R:3 energy=-22.400425543662987 pbc="F F F"
Kr       0.00000000       0.00000000       0.00000000       0.00000000       0.00000000      -2.03390121
Kr       0.00000000       0.00000000       2.00242424       0.00000000       0.00000000       2.03390121
2
Properties=species:S:1:pos:R:3:forces:R:3 energy=-22.51251028244754 pbc="F F F"
Kr       0.00000000       0.00000000       0.00000000       0.00000000       0.00000000      -1.78872383
Kr       0.00000000       0.00000000       2.06121212       0.00000000       0.00000000       1.78872383
2
Properties=species:S:1:pos:R:3:forces:R:3 energy=-22.612019173191175 pbc="F F F"
Kr       0.00000000       0.00000000       0.00000000       0.00000000       0.00000000      -1.60855341
Kr       0.00000000       0.00000000       2.12000000       0.00000000       0.00000000       1.60855341
2
Properties=species:S:1:pos:R:3:forces:R:3 energy=-22.703115870844215 pbc="F F F"
Kr       0.00000000       0.00000000       0.00000000       0.00000000       0.00000000      -1.50357771
Kr       0.00000000       0.00000000       2.17878788       0.00000000       0.00000000       1.50357771
2
Properties=species:S:1:pos:R:3:forces:R:3 energy=-22.790299718172665 pbc="F F F"
Kr       0.00000000       0.00000000       0.00000000       0.00000000       0.00000000      -1.47480381
Kr       0.00000000       0.00000000       2.23757576       0.00000000       0.00000000       1.47480381
2
Properties=species:S:1:pos:R:3:forces:R:3 energy=-22.8778697736648 pbc="F F F"
Kr       0.00000000       0.00000000       0.00000000       0.00000000       0.00000000      -1.51471293
Kr       0.00000000       0.00000000       2.29636364       0.00000000       0.00000000       1.51471293
2
Properties=species:S:1:pos:R:3:forces:R:3 energy=-22.96945179778173 pbc="F F F"
Kr       0.00000000       0.00000000       0.00000000       0.00000000       0.00000000      -1.60840452
Kr       0.00000000       0.00000000       2.35515152       0.00000000       0.00000000       1.60840452
2
Properties=species:S:1:pos:R:3:forces:R:3 energy=-23.067649201821958 pbc="F F F"
Kr       0.00000000       0.00000000       0.00000000       0.00000000       0.00000000      -1.73633432
Kr       0.00000000       0.00000000       2.41393939       0.00000000       0.00000000       1.73633432
2
Properties=species:S:1:pos:R:3:forces:R:3 energy=-23.17386185217713 pbc="F F F"
Kr       0.00000000       0.00000000       0.00000000       0.00000000       0.00000000      -1.87748885
Kr       0.00000000       0.00000000       2.47272727       0.00000000       0.00000000       1.87748885
2
Properties=species:S:1:pos:R:3:forces:R:3 energy=-23.288261270048068 pbc="F F F"
Kr       0.00000000       0.00000000       0.00000000       0.00000000       0.00000000      -2.01176119
Kr       0.00000000       0.00000000       2.53151515       0.00000000       0.00000000       2.01176119
2
Properties=species:S:1:pos:R:3:forces:R:3 energy=-23.409927970049804 pbc="F F F"
Kr       0.00000000       0.00000000       0.00000000       0.00000000       0.00000000      -2.12238193
Kr       0.00000000       0.00000000       2.59030303       0.00000000       0.00000000       2.12238193
2
Properties=species:S:1:pos:R:3:forces:R:3 energy=-23.537116568208294 pbc="F F F"
Kr       0.00000000       0.00000000       0.00000000       0.00000000       0.00000000      -2.19836187
Kr       0.00000000       0.00000000       2.64909091       0.00000000       0.00000000       2.19836187
2
Properties=species:S:1:pos:R:3:forces:R:3 energy=-23.66764298878004 pbc="F F F"
Kr       0.00000000       0.00000000       0.00000000       0.00000000       0.00000000      -2.23581934
Kr       0.00000000       0.00000000       2.70787879       0.00000000       0.00000000       2.23581934
2
Properties=species:S:1:pos:R:3:forces:R:3 energy=-23.7992830866531 pbc="F F F"
Kr       0.00000000       0.00000000       0.00000000       0.00000000       0.00000000      -2.23703051
Kr       0.00000000       0.00000000       2.76666667       0.00000000       0.00000000       2.23703051
2
Properties=species:S:1:pos:R:3:forces:R:3 energy=-23.930056853380748 pbc="F F F"
Kr       0.00000000       0.00000000       0.00000000       0.00000000       0.00000000      -2.20726442
Kr       0.00000000       0.00000000       2.82545455       0.00000000       0.00000000       2.20726442
2
Properties=species:S:1:pos:R:3:forces:R:3 energy=-24.05828753706955 pbc="F F F"
Kr       0.00000000       0.00000000       0.00000000       0.00000000       0.00000000      -2.15101552
Kr       0.00000000       0.00000000       2.88424242       0.00000000       0.00000000       2.15101552
2
Properties=species:S:1:pos:R:3:forces:R:3 energy=-24.182479578402493 pbc="F F F"
Kr       0.00000000       0.00000000       0.00000000       0.00000000       0.00000000      -2.06984138
Kr       0.00000000       0.00000000       2.94303030       0.00000000       0.00000000       2.06984138
2
Properties=species:S:1:pos:R:3:forces:R:3 energy=-24.301150763167357 pbc="F F F"
Kr       0.00000000       0.00000000       0.00000000       0.00000000       0.00000000      -1.96314526
Kr       0.00000000       0.00000000       3.00181818       0.00000000       0.00000000       1.96314526
2
Properties=species:S:1:pos:R:3:forces:R:3 energy=-24.412792168727368 pbc="F F F"
Kr       0.00000000       0.00000000       0.00000000       0.00000000       0.00000000      -1.83091700
Kr       0.00000000       0.00000000       3.06060606       0.00000000       0.00000000       1.83091700
2
Properties=species:S:1:pos:R:3:forces:R:3 energy=-24.515974977128554 pbc="F F F"
Kr       0.00000000       0.00000000       0.00000000       0.00000000       0.00000000      -1.67608690
Kr       0.00000000       0.00000000       3.11939394       0.00000000       0.00000000       1.67608690
2
Properties=species:S:1:pos:R:3:forces:R:3 energy=-24.609541209963023 pbc="F F F"
Kr       0.00000000       0.00000000       0.00000000       0.00000000       0.00000000      -1.50497043
Kr       0.00000000       0.00000000       3.17818182       0.00000000       0.00000000       1.50497043
2
Properties=species:S:1:pos:R:3:forces:R:3 energy=-24.69276967245176 pbc="F F F"
Kr       0.00000000       0.00000000       0.00000000       0.00000000       0.00000000      -1.32594943
Kr       0.00000000       0.00000000       3.23696970       0.00000000       0.00000000       1.32594943
2
Properties=species:S:1:pos:R:3:forces:R:3 energy=-24.765450341625204 pbc="F F F"
Kr       0.00000000       0.00000000       0.00000000       0.00000000       0.00000000      -1.14748931
Kr       0.00000000       0.00000000       3.29575758       0.00000000       0.00000000       1.14748931
2
Properties=species:S:1:pos:R:3:forces:R:3 energy=-24.827834774466844 pbc="F F F"
Kr       0.00000000       0.00000000       0.00000000       0.00000000       0.00000000      -0.97657520
Kr       0.00000000       0.00000000       3.35454545       0.00000000       0.00000000       0.97657520
2
Properties=species:S:1:pos:R:3:forces:R:3 energy=-24.880517858633635 pbc="F F F"
Kr       0.00000000       0.00000000       0.00000000       0.00000000       0.00000000      -0.81804085
Kr       0.00000000       0.00000000       3.41333333       0.00000000       0.00000000       0.81804085
2
Properties=species:S:1:pos:R:3:forces:R:3 energy=-24.924315744519358 pbc="F F F"
Kr       0.00000000       0.00000000       0.00000000       0.00000000       0.00000000      -0.67464554
Kr       0.00000000       0.00000000       3.47212121       0.00000000       0.00000000       0.67464554
2
Properties=species:S:1:pos:R:3:forces:R:3 energy=-24.960159035315097 pbc="F F F"
Kr       0.00000000       0.00000000       0.00000000       0.00000000       0.00000000      -0.54759270
Kr       0.00000000       0.00000000       3.53090909       0.00000000       0.00000000       0.54759270
2
Properties=species:S:1:pos:R:3:forces:R:3 energy=-24.98902222065351 pbc="F F F"
Kr       0.00000000       0.00000000       0.00000000       0.00000000       0.00000000      -0.43705484
Kr       0.00000000       0.00000000       3.58969697       0.00000000       0.00000000       0.43705484
2
Properties=species:S:1:pos:R:3:forces:R:3 energy=-25.0118626430365 pbc="F F F"
Kr       0.00000000       0.00000000       0.00000000       0.00000000       0.00000000      -0.34258306
Kr       0.00000000       0.00000000       3.64848485       0.00000000       0.00000000       0.34258306
2
Properties=species:S:1:pos:R:3:forces:R:3 energy=-25.02959952175197 pbc="F F F"
Kr       0.00000000       0.00000000       0.00000000       0.00000000       0.00000000      -0.26330441
Kr       0.00000000       0.00000000       3.70727273       0.00000000       0.00000000       0.26330441
2
Properties=species:S:1:pos:R:3:forces:R:3 energy=-25.043094885723153 pbc="F F F"
Kr       0.00000000       0.00000000       0.00000000       0.00000000       0.00000000      -0.19801736
Kr       0.00000000       0.00000000       3.76606061       0.00000000       0.00000000       0.19801736
2
Properties=species:S:1:pos:R:3:forces:R:3 energy=-25.053126873003617 pbc="F F F"
Kr       0.00000000       0.00000000       0.00000000       0.00000000       0.00000000      -0.14526886
Kr       0.00000000       0.00000000       3.82484848       0.00000000       0.00000000       0.14526886
2
Properties=species:S:1:pos:R:3:forces:R:3 energy=-25.060387821844717 pbc="F F F"
Kr       0.00000000       0.00000000       0.00000000       0.00000000       0.00000000      -0.10341419
Kr       0.00000000       0.00000000       3.88363636       0.00000000       0.00000000       0.10341419
2
Properties=species:S:1:pos:R:3:forces:R:3 energy=-25.06546711762517 pbc="F F F"
Kr       0.00000000       0.00000000       0.00000000       0.00000000       0.00000000      -0.07074273
Kr       0.00000000       0.00000000       3.94242424       0.00000000       0.00000000       0.07074273
2
Properties=species:S:1:pos:R:3:forces:R:3 energy=-25.0688530982198 pbc="F F F"
Kr       0.00000000       0.00000000       0.00000000       0.00000000       0.00000000      -0.04559327
Kr       0.00000000       0.00000000       4.00121212       0.00000000       0.00000000       0.04559327
2
Properties=species:S:1:pos:R:3:forces:R:3 energy=-25.07094449967524 pbc="F F F"
Kr       0.00000000       0.00000000       0.00000000       0.00000000       0.00000000      -0.02646931
Kr       0.00000000       0.00000000       4.06000000       0.00000000       0.00000000       0.02646931
2
Properties=species:S:1:pos:R:3:forces:R:3 energy=-25.072058089564237 pbc="F F F"
Kr       0.00000000       0.00000000       0.00000000       0.00000000       0.00000000      -0.01211528
Kr       0.00000000       0.00000000       4.11878788       0.00000000       0.00000000       0.01211528
2
Properties=species:S:1:pos:R:3:forces:R:3 energy=-25.072443930922446 pbc="F F F"
Kr       0.00000000       0.00000000       0.00000000       0.00000000       0.00000000      -0.00153613
Kr       0.00000000       0.00000000       4.17757576       0.00000000       0.00000000       0.00153613
2
Properties=species:S:1:pos:R:3:forces:R:3 energy=-25.07229872458135 pbc="F F F"
Kr       0.00000000       0.00000000       0.00000000       0.00000000       0.00000000       0.00602763
Kr       0.00000000       0.00000000       4.23636364       0.00000000       0.00000000      -0.00602763
2
Properties=species:S:1:pos:R:3:forces:R:3 energy=-25.071782982037593 pbc="F F F"
Kr       0.00000000       0.00000000       0.00000000       0.00000000       0.00000000       0.01115965
Kr       0.00000000       0.00000000       4.29515152       0.00000000       0.00000000      -0.01115965
2
Properties=species:S:1:pos:R:3:forces:R:3 energy=-25.07102484133816 pbc="F F F"
Kr       0.00000000       0.00000000       0.00000000       0.00000000       0.00000000       0.01433168
Kr       0.00000000       0.00000000       4.35393939       0.00000000       0.00000000      -0.01433168
2
Properties=species:S:1:pos:R:3:forces:R:3 energy=-25.07012768301168 pbc="F F F"
Kr       0.00000000       0.00000000       0.00000000       0.00000000       0.00000000       0.01595150
Kr       0.00000000       0.00000000       4.41272727       0.00000000       0.00000000      -0.01595150
2
Properties=species:S:1:pos:R:3:forces:R:3 energy=-25.06917203900097 pbc="F F F"
Kr       0.00000000       0.00000000       0.00000000       0.00000000       0.00000000       0.01638546
Kr       0.00000000       0.00000000       4.47151515       0.00000000       0.00000000      -0.01638546
2
Properties=species:S:1:pos:R:3:forces:R:3 energy=-25.068217501199587 pbc="F F F"
Kr       0.00000000       0.00000000       0.00000000       0.00000000       0.00000000       0.01596714
Kr       0.00000000       0.00000000       4.53030303       0.00000000       0.00000000      -0.01596714
2
Properties=species:S:1:pos:R:3:forces:R:3 energy=-25.067306519122067 pbc="F F F"
Kr       0.00000000       0.00000000       0.00000000       0.00000000       0.00000000       0.01499433
Kr       0.00000000       0.00000000       4.58909091       0.00000000       0.00000000      -0.01499433
2
Properties=species:S:1:pos:R:3:forces:R:3 energy=-25.066460583622735 pbc="F F F"
Kr       0.00000000       0.00000000       0.00000000       0.00000000       0.00000000       0.01372483
Kr       0.00000000       0.00000000       4.64787879       0.00000000       0.00000000      -0.01372483
2
Properties=species:S:1:pos:R:3:forces:R:3 energy=-25.06569357279245 pbc="F F F"
Kr       0.00000000       0.00000000       0.00000000       0.00000000       0.00000000       0.01236587
Kr       0.00000000       0.00000000       4.70666667       0.00000000       0.00000000      -0.01236587
2
Properties=species:S:1:pos:R:3:forces:R:3 energy=-25.06500601724143 pbc="F F F"
Kr       0.00000000       0.00000000       0.00000000       0.00000000       0.00000000       0.01105864
Kr       0.00000000       0.00000000       4.76545455       0.00000000       0.00000000      -0.01105864
2
Properties=species:S:1:pos:R:3:forces:R:3 energy=-25.064390819769258 pbc="F F F"
Kr       0.00000000       0.00000000       0.00000000       0.00000000       0.00000000       0.00985483
Kr       0.00000000       0.00000000       4.82424242       0.00000000       0.00000000      -0.00985483
2
Properties=species:S:1:pos:R:3:forces:R:3 energy=-25.06384659532198 pbc="F F F"
Kr       0.00000000       0.00000000       0.00000000       0.00000000       0.00000000       0.00869971
Kr       0.00000000       0.00000000       4.88303030       0.00000000       0.00000000      -0.00869971
2
Properties=species:S:1:pos:R:3:forces:R:3 energy=-25.063370034469962 pbc="F F F"
Kr       0.00000000       0.00000000       0.00000000       0.00000000       0.00000000       0.00743555
Kr       0.00000000       0.00000000       4.94181818       0.00000000       0.00000000      -0.00743555
2
Properties=species:S:1:pos:R:3:forces:R:3 energy=-25.062978783275955 pbc="F F F"
Kr       0.00000000       0.00000000       0.00000000       0.00000000       0.00000000       0.00584685
Kr       0.00000000       0.00000000       5.00060606       0.00000000       0.00000000      -0.00584685
2
Properties=species:S:1:pos:R:3:forces:R:3 energy=-25.06269237297659 pbc="F F F"
Kr       0.00000000       0.00000000       0.00000000       0.00000000       0.00000000       0.00376719
Kr       0.00000000       0.00000000       5.05939394       0.00000000       0.00000000      -0.00376719
2
Properties=species:S:1:pos:R:3:forces:R:3 energy=-25.062543646651143 pbc="F F F"
Kr       0.00000000       0.00000000       0.00000000       0.00000000       0.00000000       0.00124277
Kr       0.00000000       0.00000000       5.11818182       0.00000000       0.00000000      -0.00124277
2
Properties=species:S:1:pos:R:3:forces:R:3 energy=-25.062546337858592 pbc="F F F"
Kr       0.00000000       0.00000000       0.00000000       0.00000000       0.00000000      -0.00128802
Kr       0.00000000       0.00000000       5.17696970       0.00000000       0.00000000       0.00128802
2
Properties=species:S:1:pos:R:3:forces:R:3 energy=-25.06267790054014 pbc="F F F"
Kr       0.00000000       0.00000000       0.00000000       0.00000000       0.00000000      -0.00289149
Kr       0.00000000       0.00000000       5.23575758       0.00000000       0.00000000       0.00289149
2
Properties=species:S:1:pos:R:3:forces:R:3 energy=-25.062843267415293 pbc="F F F"
Kr       0.00000000       0.00000000       0.00000000       0.00000000       0.00000000      -0.00229865
Kr       0.00000000       0.00000000       5.29454545       0.00000000       0.00000000       0.00229865
2
Properties=species:S:1:pos:R:3:forces:R:3 energy=-25.06288820181827 pbc="F F F"
Kr       0.00000000       0.00000000       0.00000000       0.00000000       0.00000000       0.00122392
Kr       0.00000000       0.00000000       5.35333333       0.00000000       0.00000000      -0.00122392
2
Properties=species:S:1:pos:R:3:forces:R:3 energy=-25.062677495428165 pbc="F F F"
Kr       0.00000000       0.00000000       0.00000000       0.00000000       0.00000000       0.00575242
Kr       0.00000000       0.00000000       5.41212121       0.00000000       0.00000000      -0.00575242
2
Properties=species:S:1:pos:R:3:forces:R:3 energy=-25.062302876199514 pbc="F F F"
Kr       0.00000000       0.00000000       0.00000000       0.00000000       0.00000000       0.00583166
Kr       0.00000000       0.00000000       5.47090909       0.00000000       0.00000000      -0.00583166
2
Properties=species:S:1:pos:R:3:forces:R:3 energy=-25.06210398523749 pbc="F F F"
Kr       0.00000000       0.00000000       0.00000000       0.00000000       0.00000000       0.00061455
Kr       0.00000000       0.00000000       5.52969697       0.00000000       0.00000000      -0.00061455
2
Properties=species:S:1:pos:R:3:forces:R:3 energy=-25.06216674786925 pbc="F F F"
Kr       0.00000000       0.00000000       0.00000000       0.00000000       0.00000000      -0.00172135
Kr       0.00000000       0.00000000       5.58848485       0.00000000       0.00000000       0.00172135
2
Properties=species:S:1:pos:R:3:forces:R:3 energy=-25.06222610757519 pbc="F F F"
Kr       0.00000000       0.00000000       0.00000000       0.00000000       0.00000000      -0.00024628
Kr       0.00000000       0.00000000       5.64727273       0.00000000       0.00000000       0.00024628
2
Properties=species:S:1:pos:R:3:forces:R:3 energy=-25.062268741029303 pbc="F F F"
Kr       0.00000000       0.00000000       0.00000000       0.00000000       0.00000000      -0.00232939
Kr       0.00000000       0.00000000       5.70606061       0.00000000       0.00000000       0.00232939
2
Properties=species:S:1:pos:R:3:forces:R:3 energy=-25.06262271160247 pbc="F F F"
Kr       0.00000000       0.00000000       0.00000000       0.00000000       0.00000000      -0.01005369
Kr       0.00000000       0.00000000       5.76484848       0.00000000       0.00000000       0.01005369
2
Properties=species:S:1:pos:R:3:forces:R:3 energy=-25.063352848755343 pbc="F F F"
Kr       0.00000000       0.00000000       0.00000000       0.00000000       0.00000000      -0.01322907
Kr       0.00000000       0.00000000       5.82363636       0.00000000       0.00000000       0.01322907
2
Properties=species:S:1:pos:R:3:forces:R:3 energy=-25.06399943296014 pbc="F F F"
Kr       0.00000000       0.00000000       0.00000000       0.00000000       0.00000000      -0.00789433
Kr       0.00000000       0.00000000       5.88242424       0.00000000       0.00000000       0.00789433
2
Properties=species:S:1:pos:R:3:forces:R:3 energy=-25.06425912985395 pbc="F F F"
Kr       0.00000000       0.00000000       0.00000000       0.00000000       0.00000000      -0.00121364
Kr       0.00000000       0.00000000       5.94121212       0.00000000       0.00000000       0.00121364
2
Properties=species:S:1:pos:R:3:forces:R:3 energy=-25.06422531814635 pbc="F F F"
Kr       0.00000000       0.00000000       0.00000000       0.00000000       0.00000000       0.00144978
Kr       0.00000000       0.00000000       6.00000000       0.00000000       0.00000000      -0.00144978
