2
Properties=species:S:1:pos:R:3:forces:R:3 energy=-28764736.021632496 pbc="F F F"
La       0.00000000       0.00000000       0.00000000       0.00000000       0.00000000 1749133.37500000
La       0.00000000       0.00000000       0.18000000       0.00000000       0.00000000 -1749133.37500000
2
Properties=species:S:1:pos:R:3:forces:R:3 energy=-28571504.021632496 pbc="F F F"
La       0.00000000       0.00000000       0.00000000       0.00000000       0.00000000 5199412.50000000
La       0.00000000       0.00000000       0.23878788       0.00000000       0.00000000 -5199412.50000000
2
Properties=species:S:1:pos:R:3:forces:R:3 energy=-28100160.021632496 pbc="F F F"
La       0.00000000       0.00000000       0.00000000       0.00000000       0.00000000 11358345.00000000
La       0.00000000       0.00000000       0.29757576       0.00000000       0.00000000 -11358345.00000000
2
Properties=species:S:1:pos:R:3:forces:R:3 energy=-27166830.021632496 pbc="F F F"
La       0.00000000       0.00000000       0.00000000       0.00000000       0.00000000 21012476.00000000
La       0.00000000       0.00000000       0.35636364       0.00000000       0.00000000 -21012476.00000000
2
Properties=species:S:1:pos:R:3:forces:R:3 energy=-25557828.021632496 pbc="F F F"
La       0.00000000       0.00000000       0.00000000       0.00000000       0.00000000 34293808.00000000
La       0.00000000       0.00000000       0.41515152       0.00000000       0.00000000 -34293808.00000000
2
Properties=species:S:1:pos:R:3:forces:R:3 energy=-23084066.021632493 pbc="F F F"
La       0.00000000       0.00000000       0.00000000       0.00000000       0.00000000 50116272.00000000
La       0.00000000       0.00000000       0.47393939       0.00000000       0.00000000 -50116272.00000000
2
Properties=species:S:1:pos:R:3:forces:R:3 energy=-19669772.021632493 pbc="F F F"
La       0.00000000       0.00000000       0.00000000       0.00000000       0.00000000 65653528.00000000
La       0.00000000       0.00000000       0.53272727       0.00000000       0.00000000 -65653528.00000000
2
Properties=species:S:1:pos:R:3:forces:R:3 energy=-15458054.021632493 pbc="F F F"
La       0.00000000       0.00000000       0.00000000       0.00000000       0.00000000 76399688.00000000
La       0.00000000       0.00000000       0.59151515       0.00000000       0.00000000 -76399688.00000000
2
Properties=species:S:1:pos:R:3:forces:R:3 energy=-10877518.02163249 pbc="F F F"
La       0.00000000       0.00000000       0.00000000       0.00000000       0.00000000 77491080.00000000
La       0.00000000       0.00000000       0.65030303       0.00000000       0.00000000 -77491080.00000000
2
Properties=species:S:1:pos:R:3:forces:R:3 energy=-6588406.021632486 pbc="F F F"
La       0.00000000       0.00000000       0.00000000       0.00000000       0.00000000 66451188.00000000
La       0.00000000       0.00000000       0.70909091       0.00000000       0.00000000 -66451188.00000000
2
Properties=species:S:1:pos:R:3:forces:R:3 energy=-3253022.271632481 pbc="F F F"
La       0.00000000       0.00000000       0.00000000       0.00000000       0.00000000 45991696.00000000
La       0.00000000       0.00000000       0.76787879       0.00000000       0.00000000 -45991696.00000000
2
Properties=species:S:1:pos:R:3:forces:R:3 energy=-1212393.271632473 pbc="F F F"
La       0.00000000       0.00000000       0.00000000       0.00000000       0.00000000 23941486.00000000
La       0.00000000       0.00000000       0.82666667       0.00000000       0.00000000 -23941486.00000000
2
Properties=species:S:1:pos:R:3:forces:R:3 energy=-305995.0528824619 pbc="F F F"
La       0.00000000       0.00000000       0.00000000       0.00000000       0.00000000 8409079.00000000
La       0.00000000       0.00000000       0.88545455       0.00000000       0.00000000 -8409079.00000000
2
Properties=species:S:1:pos:R:3:forces:R:3 energy=-47540.36538244289 pbc="F F F"
La       0.00000000       0.00000000       0.00000000       0.00000000       0.00000000 1701232.00000000
La       0.00000000       0.00000000       0.94424242       0.00000000       0.00000000 -1701232.00000000
2
Properties=species:S:1:pos:R:3:forces:R:3 energy=-5050.7345230473 pbc="F F F"
La       0.00000000       0.00000000       0.00000000       0.00000000       0.00000000  192839.60937500
La       0.00000000       0.00000000       1.00303030       0.00000000       0.00000000 -192839.60937500
2
Properties=species:S:1:pos:R:3:forces:R:3 energy=-693.9492446968932 pbc="F F F"
La       0.00000000       0.00000000       0.00000000       0.00000000       0.00000000   13960.79687500
La       0.00000000       0.00000000       1.06181818       0.00000000       0.00000000  -13960.79687500
2
Properties=species:S:1:pos:R:3:forces:R:3 energy=-436.1766006159106 pbc="F F F"
La       0.00000000       0.00000000       0.00000000       0.00000000       0.00000000    1560.51049805
La       0.00000000       0.00000000       1.12060606       0.00000000       0.00000000   -1560.51049805
2
Properties=species:S:1:pos:R:3:forces:R:3 energy=-344.0411940710848 pbc="F F F"
La       0.00000000       0.00000000       0.00000000       0.00000000       0.00000000    1442.94921875
La       0.00000000       0.00000000       1.17939394       0.00000000       0.00000000   -1442.94921875
2
Properties=species:S:1:pos:R:3:forces:R:3 energy=-267.576197665086 pbc="F F F"
La       0.00000000       0.00000000       0.00000000       0.00000000       0.00000000    1195.78234863
La       0.00000000       0.00000000       1.23818182       0.00000000       0.00000000   -1195.78234863
2
Properties=species:S:1:pos:R:3:forces:R:3 energy=-201.08796210750592 pbc="F F F"
La       0.00000000       0.00000000       0.00000000       0.00000000       0.00000000    1059.39965820
La       0.00000000       0.00000000       1.29696970       0.00000000       0.00000000   -1059.39965820
2
Properties=species:S:1:pos:R:3:forces:R:3 energy=-144.8500469623214 pbc="F F F"
La       0.00000000       0.00000000       0.00000000       0.00000000       0.00000000     839.50714111
La       0.00000000       0.00000000       1.35575758       0.00000000       0.00000000    -839.50714111
2
Properties=species:S:1:pos:R:3:forces:R:3 energy=-103.20564528056379 pbc="F F F"
La       0.00000000       0.00000000       0.00000000       0.00000000       0.00000000     578.38665771
La       0.00000000       0.00000000       1.41454545       0.00000000       0.00000000    -578.38665771
2
Properties=species:S:1:pos:R:3:forces:R:3 energy=-75.96877530382532 pbc="F F F"
La       0.00000000       0.00000000       0.00000000       0.00000000       0.00000000     359.70330811
La       0.00000000       0.00000000       1.47333333       0.00000000       0.00000000    -359.70330811
2
Properties=species:S:1:pos:R:3:forces:R:3 energy=-59.48024971362752 pbc="F F F"
La       0.00000000       0.00000000       0.00000000       0.00000000       0.00000000     212.81872559
La       0.00000000       0.00000000       1.53212121       0.00000000       0.00000000    -212.81872559
2
Properties=species:S:1:pos:R:3:forces:R:3 energy=-49.74450880808413 pbc="F F F"
La       0.00000000       0.00000000       0.00000000       0.00000000       0.00000000     122.35768127
La       0.00000000       0.00000000       1.59090909       0.00000000       0.00000000    -122.35768127
2
Properties=species:S:1:pos:R:3:forces:R:3 energy=-45.4946382131837 pbc="F F F"
La       0.00000000       0.00000000       0.00000000       0.00000000       0.00000000      45.67838669
La       0.00000000       0.00000000       1.64969697       0.00000000       0.00000000     -45.67838669
2
Properties=species:S:1:pos:R:3:forces:R:3 energy=-43.259244335801604 pbc="F F F"
La       0.00000000       0.00000000       0.00000000       0.00000000       0.00000000      21.79142570
La       0.00000000       0.00000000       1.70848485       0.00000000       0.00000000     -21.79142570
2
Properties=species:S:1:pos:R:3:forces:R:3 energy=-43.1617593242743 pbc="F F F"
La       0.00000000       0.00000000       0.00000000       0.00000000       0.00000000     -16.09441948
La       0.00000000       0.00000000       1.76727273       0.00000000       0.00000000      16.09441948
2
Properties=species:S:1:pos:R:3:forces:R:3 energy=-44.75153772390489 pbc="F F F"
La       0.00000000       0.00000000       0.00000000       0.00000000       0.00000000     -34.55575562
La       0.00000000       0.00000000       1.82606061       0.00000000       0.00000000      34.55575562
2
Properties=species:S:1:pos:R:3:forces:R:3 energy=-46.902114676688164 pbc="F F F"
La       0.00000000       0.00000000       0.00000000       0.00000000       0.00000000     -36.65970993
La       0.00000000       0.00000000       1.88484848       0.00000000       0.00000000      36.65970993
2
Properties=species:S:1:pos:R:3:forces:R:3 energy=-48.9149962124333 pbc="F F F"
La       0.00000000       0.00000000       0.00000000       0.00000000       0.00000000     -31.16812706
La       0.00000000       0.00000000       1.94363636       0.00000000       0.00000000      31.16812706
2
Properties=species:S:1:pos:R:3:forces:R:3 energy=-50.53771039622481 pbc="F F F"
La       0.00000000       0.00000000       0.00000000       0.00000000       0.00000000     -24.05586052
La       0.00000000       0.00000000       2.00242424       0.00000000       0.00000000      24.05586052
2
Properties=species:S:1:pos:R:3:forces:R:3 energy=-51.761502477247234 pbc="F F F"
La       0.00000000       0.00000000       0.00000000       0.00000000       0.00000000     -17.84040260
La       0.00000000       0.00000000       2.06121212       0.00000000       0.00000000      17.84040260
2
Properties=species:S:1:pos:R:3:forces:R:3 energy=-52.673912125184316 pbc="F F F"
La       0.00000000       0.00000000       0.00000000       0.00000000       0.00000000     -13.53826904
La       0.00000000       0.00000000       2.12000000       0.00000000       0.00000000      13.53826904
2
Properties=species:S:1:pos:R:3:forces:R:3 energy=-53.38355135781732 pbc="F F F"
La       0.00000000       0.00000000       0.00000000       0.00000000       0.00000000     -10.75200462
La       0.00000000       0.00000000       2.17878788       0.00000000       0.00000000      10.75200462
2
Properties=species:S:1:pos:R:3:forces:R:3 energy=-53.94472239547416 pbc="F F F"
La       0.00000000       0.00000000       0.00000000       0.00000000       0.00000000      -8.33987617
La       0.00000000       0.00000000       2.23757576       0.00000000       0.00000000       8.33987617
2
Properties=species:S:1:pos:R:3:forces:R:3 energy=-54.36369275250013 pbc="F F F"
La       0.00000000       0.00000000       0.00000000       0.00000000       0.00000000      -5.93044615
La       0.00000000       0.00000000       2.29636364       0.00000000       0.00000000       5.93044615
2
Properties=species:S:1:pos:R:3:forces:R:3 energy=-54.6484237052564 pbc="F F F"
La       0.00000000       0.00000000       0.00000000       0.00000000       0.00000000      -3.84888244
La       0.00000000       0.00000000       2.35515152       0.00000000       0.00000000       3.84888244
2
Properties=species:S:1:pos:R:3:forces:R:3 energy=-54.82986769626888 pbc="F F F"
La       0.00000000       0.00000000       0.00000000       0.00000000       0.00000000      -2.44686413
La       0.00000000       0.00000000       2.41393939       0.00000000       0.00000000       2.44686413
2
Properties=species:S:1:pos:R:3:forces:R:3 energy=-54.94841094291176 pbc="F F F"
La       0.00000000       0.00000000       0.00000000       0.00000000       0.00000000      -1.66030788
La       0.00000000       0.00000000       2.47272727       0.00000000       0.00000000       1.66030788
2
Properties=species:S:1:pos:R:3:forces:R:3 energy=-55.02963483514264 pbc="F F F"
La       0.00000000       0.00000000       0.00000000       0.00000000       0.00000000      -1.11084867
La       0.00000000       0.00000000       2.53151515       0.00000000       0.00000000       1.11084867
2
Properties=species:S:1:pos:R:3:forces:R:3 energy=-55.07791493684722 pbc="F F F"
La       0.00000000       0.00000000       0.00000000       0.00000000       0.00000000      -0.51545608
La       0.00000000       0.00000000       2.59030303       0.00000000       0.00000000       0.51545608
2
Properties=species:S:1:pos:R:3:forces:R:3 energy=-55.088971308165036 pbc="F F F"
La       0.00000000       0.00000000       0.00000000       0.00000000       0.00000000       0.14010708
La       0.00000000       0.00000000       2.64909091       0.00000000       0.00000000      -0.14010708
2
Properties=species:S:1:pos:R:3:forces:R:3 energy=-55.06268216388757 pbc="F F F"
La       0.00000000       0.00000000       0.00000000       0.00000000       0.00000000       0.73404545
La       0.00000000       0.00000000       2.70787879       0.00000000       0.00000000      -0.73404545
2
Properties=species:S:1:pos:R:3:forces:R:3 energy=-55.00566645993708 pbc="F F F"
La       0.00000000       0.00000000       0.00000000       0.00000000       0.00000000       1.17818296
La       0.00000000       0.00000000       2.76666667       0.00000000       0.00000000      -1.17818296
2
Properties=species:S:1:pos:R:3:forces:R:3 energy=-54.927164088427865 pbc="F F F"
La       0.00000000       0.00000000       0.00000000       0.00000000       0.00000000       1.47045720
La       0.00000000       0.00000000       2.82545455       0.00000000       0.00000000      -1.47045720
2
Properties=species:S:1:pos:R:3:forces:R:3 energy=-54.834851292566164 pbc="F F F"
La       0.00000000       0.00000000       0.00000000       0.00000000       0.00000000       1.65646696
La       0.00000000       0.00000000       2.88424242       0.00000000       0.00000000      -1.65646696
2
Properties=species:S:1:pos:R:3:forces:R:3 energy=-54.733646796286706 pbc="F F F"
La       0.00000000       0.00000000       0.00000000       0.00000000       0.00000000       1.77821410
La       0.00000000       0.00000000       2.94303030       0.00000000       0.00000000      -1.77821410
2
Properties=species:S:1:pos:R:3:forces:R:3 energy=-54.62668856949333 pbc="F F F"
La       0.00000000       0.00000000       0.00000000       0.00000000       0.00000000       1.85294998
La       0.00000000       0.00000000       3.00181818       0.00000000       0.00000000      -1.85294998
2
Properties=species:S:1:pos:R:3:forces:R:3 energy=-54.51672261069862 pbc="F F F"
La       0.00000000       0.00000000       0.00000000       0.00000000       0.00000000       1.87959301
La       0.00000000       0.00000000       3.06060606       0.00000000       0.00000000      -1.87959301
2
Properties=species:S:1:pos:R:3:forces:R:3 energy=-54.4067289517693 pbc="F F F"
La       0.00000000       0.00000000       0.00000000       0.00000000       0.00000000       1.85362995
La       0.00000000       0.00000000       3.11939394       0.00000000       0.00000000      -1.85362995
2
Properties=species:S:1:pos:R:3:forces:R:3 energy=-54.299757972820345 pbc="F F F"
La       0.00000000       0.00000000       0.00000000       0.00000000       0.00000000       1.77825463
La       0.00000000       0.00000000       3.17818182       0.00000000       0.00000000      -1.77825463
2
Properties=species:S:1:pos:R:3:forces:R:3 energy=-54.19834356448095 pbc="F F F"
La       0.00000000       0.00000000       0.00000000       0.00000000       0.00000000       1.66771805
La       0.00000000       0.00000000       3.23696970       0.00000000       0.00000000      -1.66771805
2
Properties=species:S:1:pos:R:3:forces:R:3 energy=-54.1039506652015 pbc="F F F"
La       0.00000000       0.00000000       0.00000000       0.00000000       0.00000000       1.54305708
La       0.00000000       0.00000000       3.29575758       0.00000000       0.00000000      -1.54305708
2
Properties=species:S:1:pos:R:3:forces:R:3 energy=-54.01679304435891 pbc="F F F"
La       0.00000000       0.00000000       0.00000000       0.00000000       0.00000000       1.42461300
La       0.00000000       0.00000000       3.35454545       0.00000000       0.00000000      -1.42461300
2
Properties=species:S:1:pos:R:3:forces:R:3 energy=-53.9360250634943 pbc="F F F"
La       0.00000000       0.00000000       0.00000000       0.00000000       0.00000000       1.32783842
La       0.00000000       0.00000000       3.41333333       0.00000000       0.00000000      -1.32783842
2
Properties=species:S:1:pos:R:3:forces:R:3 energy=-53.86001349075632 pbc="F F F"
La       0.00000000       0.00000000       0.00000000       0.00000000       0.00000000       1.26452219
La       0.00000000       0.00000000       3.47212121       0.00000000       0.00000000      -1.26452219
2
Properties=species:S:1:pos:R:3:forces:R:3 energy=-53.78649436915894 pbc="F F F"
La       0.00000000       0.00000000       0.00000000       0.00000000       0.00000000       1.24442208
La       0.00000000       0.00000000       3.53090909       0.00000000       0.00000000      -1.24442208
2
Properties=species:S:1:pos:R:3:forces:R:3 energy=-53.71275089133638 pbc="F F F"
La       0.00000000       0.00000000       0.00000000       0.00000000       0.00000000       1.27239704
La       0.00000000       0.00000000       3.58969697       0.00000000       0.00000000      -1.27239704
2
Properties=species:S:1:pos:R:3:forces:R:3 energy=-53.63604620391514 pbc="F F F"
La       0.00000000       0.00000000       0.00000000       0.00000000       0.00000000       1.34324515
La       0.00000000       0.00000000       3.64848485       0.00000000       0.00000000      -1.34324515
2
Properties=species:S:1:pos:R:3:forces:R:3 energy=-53.55429538600527 pbc="F F F"
La       0.00000000       0.00000000       0.00000000       0.00000000       0.00000000       1.44055641
La       0.00000000       0.00000000       3.70727273       0.00000000       0.00000000      -1.44055641
2
Properties=species:S:1:pos:R:3:forces:R:3 energy=-53.46658536440985 pbc="F F F"
La       0.00000000       0.00000000       0.00000000       0.00000000       0.00000000       1.54230857
La       0.00000000       0.00000000       3.76606061       0.00000000       0.00000000      -1.54230857
2
Properties=species:S:1:pos:R:3:forces:R:3 energy=-53.373245330344886 pbc="F F F"
La       0.00000000       0.00000000       0.00000000       0.00000000       0.00000000       1.62975729
La       0.00000000       0.00000000       3.82484848       0.00000000       0.00000000      -1.62975729
2
Properties=species:S:1:pos:R:3:forces:R:3 energy=-53.27544361286745 pbc="F F F"
La       0.00000000       0.00000000       0.00000000       0.00000000       0.00000000       1.69299042
La       0.00000000       0.00000000       3.88363636       0.00000000       0.00000000      -1.69299042
2
Properties=species:S:1:pos:R:3:forces:R:3 energy=-53.17471145682687 pbc="F F F"
La       0.00000000       0.00000000       0.00000000       0.00000000       0.00000000       1.72962344
La       0.00000000       0.00000000       3.94242424       0.00000000       0.00000000      -1.72962344
2
Properties=species:S:1:pos:R:3:forces:R:3 energy=-53.07260426354702 pbc="F F F"
La       0.00000000       0.00000000       0.00000000       0.00000000       0.00000000       1.73979688
La       0.00000000       0.00000000       4.00121212       0.00000000       0.00000000      -1.73979688
2
Properties=species:S:1:pos:R:3:forces:R:3 energy=-52.97068477213161 pbc="F F F"
La       0.00000000       0.00000000       0.00000000       0.00000000       0.00000000       1.72288060
La       0.00000000       0.00000000       4.06000000       0.00000000       0.00000000      -1.72288060
2
Properties=species:S:1:pos:R:3:forces:R:3 energy=-52.87059443256127 pbc="F F F"
La       0.00000000       0.00000000       0.00000000       0.00000000       0.00000000       1.67742968
La       0.00000000       0.00000000       4.11878788       0.00000000       0.00000000      -1.67742968
2
Properties=species:S:1:pos:R:3:forces:R:3 energy=-52.77403502099093 pbc="F F F"
La       0.00000000       0.00000000       0.00000000       0.00000000       0.00000000       1.60256684
La       0.00000000       0.00000000       4.17757576       0.00000000       0.00000000      -1.60256684
2
Properties=species:S:1:pos:R:3:forces:R:3 energy=-52.68272260684742 pbc="F F F"
La       0.00000000       0.00000000       0.00000000       0.00000000       0.00000000       1.49951220
La       0.00000000       0.00000000       4.23636364       0.00000000       0.00000000      -1.49951220
2
Properties=species:S:1:pos:R:3:forces:R:3 energy=-52.59819863123923 pbc="F F F"
La       0.00000000       0.00000000       0.00000000       0.00000000       0.00000000       1.37263131
La       0.00000000       0.00000000       4.29515152       0.00000000       0.00000000      -1.37263131
2
Properties=species:S:1:pos:R:3:forces:R:3 energy=-52.52165150823206 pbc="F F F"
La       0.00000000       0.00000000       0.00000000       0.00000000       0.00000000       1.22968805
La       0.00000000       0.00000000       4.35393939       0.00000000       0.00000000      -1.22968805
2
Properties=species:S:1:pos:R:3:forces:R:3 energy=-52.45373150906269 pbc="F F F"
La       0.00000000       0.00000000       0.00000000       0.00000000       0.00000000       1.08109713
La       0.00000000       0.00000000       4.41272727       0.00000000       0.00000000      -1.08109713
2
Properties=species:S:1:pos:R:3:forces:R:3 energy=-52.3944233806383 pbc="F F F"
La       0.00000000       0.00000000       0.00000000       0.00000000       0.00000000       0.93844759
La       0.00000000       0.00000000       4.47151515       0.00000000       0.00000000      -0.93844759
2
Properties=species:S:1:pos:R:3:forces:R:3 energy=-52.34306091310092 pbc="F F F"
La       0.00000000       0.00000000       0.00000000       0.00000000       0.00000000       0.81244075
La       0.00000000       0.00000000       4.53030303       0.00000000       0.00000000      -0.81244075
2
Properties=species:S:1:pos:R:3:forces:R:3 energy=-52.29841994976002 pbc="F F F"
La       0.00000000       0.00000000       0.00000000       0.00000000       0.00000000       0.71078360
La       0.00000000       0.00000000       4.58909091       0.00000000       0.00000000      -0.71078360
2
Properties=species:S:1:pos:R:3:forces:R:3 energy=-52.25894785180768 pbc="F F F"
La       0.00000000       0.00000000       0.00000000       0.00000000       0.00000000       0.63670391
La       0.00000000       0.00000000       4.64787879       0.00000000       0.00000000      -0.63670391
2
Properties=species:S:1:pos:R:3:forces:R:3 energy=-52.22304602033513 pbc="F F F"
La       0.00000000       0.00000000       0.00000000       0.00000000       0.00000000       0.58863473
La       0.00000000       0.00000000       4.70666667       0.00000000       0.00000000      -0.58863473
2
Properties=species:S:1:pos:R:3:forces:R:3 energy=-52.189329416124025 pbc="F F F"
La       0.00000000       0.00000000       0.00000000       0.00000000       0.00000000       0.56134117
La       0.00000000       0.00000000       4.76545455       0.00000000       0.00000000      -0.56134117
2
Properties=species:S:1:pos:R:3:forces:R:3 energy=-52.156771549820746 pbc="F F F"
La       0.00000000       0.00000000       0.00000000       0.00000000       0.00000000       0.54809636
La       0.00000000       0.00000000       4.82424242       0.00000000       0.00000000      -0.54809636
2
Properties=species:S:1:pos:R:3:forces:R:3 energy=-52.12472738912698 pbc="F F F"
La       0.00000000       0.00000000       0.00000000       0.00000000       0.00000000       0.54318786
La       0.00000000       0.00000000       4.88303030       0.00000000       0.00000000      -0.54318786
2
Properties=species:S:1:pos:R:3:forces:R:3 energy=-52.09280748012556 pbc="F F F"
La       0.00000000       0.00000000       0.00000000       0.00000000       0.00000000       0.54348099
La       0.00000000       0.00000000       4.94181818       0.00000000       0.00000000      -0.54348099
2
Properties=species:S:1:pos:R:3:forces:R:3 energy=-52.06073298878435 pbc="F F F"
La       0.00000000       0.00000000       0.00000000       0.00000000       0.00000000       0.54840732
La       0.00000000       0.00000000       5.00060606       0.00000000       0.00000000      -0.54840732
2
Properties=species:S:1:pos:R:3:forces:R:3 energy=-52.02822511274947 pbc="F F F"
La       0.00000000       0.00000000       0.00000000       0.00000000       0.00000000       0.55846930
La       0.00000000       0.00000000       5.05939394       0.00000000       0.00000000      -0.55846930
2
Properties=species:S:1:pos:R:3:forces:R:3 energy=-51.994982142476495 pbc="F F F"
La       0.00000000       0.00000000       0.00000000       0.00000000       0.00000000       0.57312214
La       0.00000000       0.00000000       5.11818182       0.00000000       0.00000000      -0.57312214
2
Properties=species:S:1:pos:R:3:forces:R:3 energy=-51.96081683468155 pbc="F F F"
La       0.00000000       0.00000000       0.00000000       0.00000000       0.00000000       0.58890390
La       0.00000000       0.00000000       5.17696970       0.00000000       0.00000000      -0.58890390
2
Properties=species:S:1:pos:R:3:forces:R:3 energy=-51.92586239015454 pbc="F F F"
La       0.00000000       0.00000000       0.00000000       0.00000000       0.00000000       0.59849572
La       0.00000000       0.00000000       5.23575758       0.00000000       0.00000000      -0.59849572
2
Properties=species:S:1:pos:R:3:forces:R:3 energy=-51.8907746422177 pbc="F F F"
La       0.00000000       0.00000000       0.00000000       0.00000000       0.00000000       0.59179217
La       0.00000000       0.00000000       5.29454545       0.00000000       0.00000000      -0.59179217
2
Properties=species:S:1:pos:R:3:forces:R:3 energy=-51.856693922424206 pbc="F F F"
La       0.00000000       0.00000000       0.00000000       0.00000000       0.00000000       0.56484842
La       0.00000000       0.00000000       5.35333333       0.00000000       0.00000000      -0.56484842
2
Properties=species:S:1:pos:R:3:forces:R:3 energy=-51.8243790957685 pbc="F F F"
La       0.00000000       0.00000000       0.00000000       0.00000000       0.00000000       0.53744704
La       0.00000000       0.00000000       5.41212121       0.00000000       0.00000000      -0.53744704
2
Properties=species:S:1:pos:R:3:forces:R:3 energy=-51.79285720537158 pbc="F F F"
La       0.00000000       0.00000000       0.00000000       0.00000000       0.00000000       0.54079181
La       0.00000000       0.00000000       5.47090909       0.00000000       0.00000000      -0.54079181
2
Properties=species:S:1:pos:R:3:forces:R:3 energy=-51.760590744501734 pbc="F F F"
La       0.00000000       0.00000000       0.00000000       0.00000000       0.00000000       0.55291700
La       0.00000000       0.00000000       5.52969697       0.00000000       0.00000000      -0.55291700
2
Properties=species:S:1:pos:R:3:forces:R:3 energy=-51.72882314607644 pbc="F F F"
La       0.00000000       0.00000000       0.00000000       0.00000000       0.00000000       0.51827627
La       0.00000000       0.00000000       5.58848485       0.00000000       0.00000000      -0.51827627
2
Properties=species:S:1:pos:R:3:forces:R:3 energy=-51.70033521986419 pbc="F F F"
La       0.00000000       0.00000000       0.00000000       0.00000000       0.00000000       0.45158598
La       0.00000000       0.00000000       5.64727273       0.00000000       0.00000000      -0.45158598
2
Properties=species:S:1:pos:R:3:forces:R:3 energy=-51.67478357658684 pbc="F F F"
La       0.00000000       0.00000000       0.00000000       0.00000000       0.00000000       0.43223685
La       0.00000000       0.00000000       5.70606061       0.00000000       0.00000000      -0.43223685
2
Properties=species:S:1:pos:R:3:forces:R:3 energy=-51.6479186054766 pbc="F F F"
La       0.00000000       0.00000000       0.00000000       0.00000000       0.00000000       0.48519906
La       0.00000000       0.00000000       5.76484848       0.00000000       0.00000000      -0.48519906
2
Properties=species:S:1:pos:R:3:forces:R:3 energy=-51.61892401200379 pbc="F F F"
La       0.00000000       0.00000000       0.00000000       0.00000000       0.00000000       0.47814757
La       0.00000000       0.00000000       5.82363636       0.00000000       0.00000000      -0.47814757
2
Properties=species:S:1:pos:R:3:forces:R:3 energy=-51.59516986097767 pbc="F F F"
La       0.00000000       0.00000000       0.00000000       0.00000000       0.00000000       0.30892384
La       0.00000000       0.00000000       5.88242424       0.00000000       0.00000000      -0.30892384
2
Properties=species:S:1:pos:R:3:forces:R:3 energy=-51.58346170220084 pbc="F F F"
La       0.00000000       0.00000000       0.00000000       0.00000000       0.00000000       0.09605721
La       0.00000000       0.00000000       5.94121212       0.00000000       0.00000000      -0.09605721
2
Properties=species:S:1:pos:R:3:forces:R:3 energy=-51.58132018519126 pbc="F F F"
La       0.00000000       0.00000000       0.00000000       0.00000000       0.00000000       0.00635574
La       0.00000000       0.00000000       6.00000000       0.00000000       0.00000000      -0.00635574
