2
Properties=species:S:1:pos:R:3:forces:R:3 energy=-13735.161163798755 pbc="F F F"
Li       0.00000000       0.00000000       0.00000000       0.00000000       0.00000000    3169.00146484
Li       0.00000000       0.00000000       0.18000000       0.00000000       0.00000000   -3169.00146484
2
Properties=species:S:1:pos:R:3:forces:R:3 energy=-13320.631866923755 pbc="F F F"
Li       0.00000000       0.00000000       0.00000000       0.00000000       0.00000000   11609.29003906
Li       0.00000000       0.00000000       0.23878788       0.00000000       0.00000000  -11609.29003906
2
Properties=species:S:1:pos:R:3:forces:R:3 energy=-12280.233429423755 pbc="F F F"
Li       0.00000000       0.00000000       0.00000000       0.00000000       0.00000000   24527.46093750
Li       0.00000000       0.00000000       0.29757576       0.00000000       0.00000000  -24527.46093750
2
Properties=species:S:1:pos:R:3:forces:R:3 energy=-10380.245148173755 pbc="F F F"
Li       0.00000000       0.00000000       0.00000000       0.00000000       0.00000000   40164.41406250
Li       0.00000000       0.00000000       0.35636364       0.00000000       0.00000000  -40164.41406250
2
Properties=species:S:1:pos:R:3:forces:R:3 energy=-7630.687042704609 pbc="F F F"
Li       0.00000000       0.00000000       0.00000000       0.00000000       0.00000000   51970.44531250
Li       0.00000000       0.00000000       0.41515152       0.00000000       0.00000000  -51970.44531250
2
Properties=species:S:1:pos:R:3:forces:R:3 energy=-4523.633331766712 pbc="F F F"
Li       0.00000000       0.00000000       0.00000000       0.00000000       0.00000000   51035.25390625
Li       0.00000000       0.00000000       0.47393939       0.00000000       0.00000000  -51035.25390625
2
Properties=species:S:1:pos:R:3:forces:R:3 energy=-1956.2873844995036 pbc="F F F"
Li       0.00000000       0.00000000       0.00000000       0.00000000       0.00000000   34547.96484375
Li       0.00000000       0.00000000       0.53272727       0.00000000       0.00000000  -34547.96484375
2
Properties=species:S:1:pos:R:3:forces:R:3 energy=-531.2986149658777 pbc="F F F"
Li       0.00000000       0.00000000       0.00000000       0.00000000       0.00000000   14494.98437500
Li       0.00000000       0.00000000       0.59151515       0.00000000       0.00000000  -14494.98437500
2
Properties=species:S:1:pos:R:3:forces:R:3 energy=-73.45674942276318 pbc="F F F"
Li       0.00000000       0.00000000       0.00000000       0.00000000       0.00000000    2969.16528320
Li       0.00000000       0.00000000       0.65030303       0.00000000       0.00000000   -2969.16528320
2
Properties=species:S:1:pos:R:3:forces:R:3 energy=-21.241175152297142 pbc="F F F"
Li       0.00000000       0.00000000       0.00000000       0.00000000       0.00000000     176.43681335
Li       0.00000000       0.00000000       0.70909091       0.00000000       0.00000000    -176.43681335
2
Properties=species:S:1:pos:R:3:forces:R:3 energy=-12.802967517242859 pbc="F F F"
Li       0.00000000       0.00000000       0.00000000       0.00000000       0.00000000     120.87787628
Li       0.00000000       0.00000000       0.76787879       0.00000000       0.00000000    -120.87787628
2
Properties=species:S:1:pos:R:3:forces:R:3 energy=-5.721775487970008 pbc="F F F"
Li       0.00000000       0.00000000       0.00000000       0.00000000       0.00000000     116.96340179
Li       0.00000000       0.00000000       0.82666667       0.00000000       0.00000000    -116.96340179
2
Properties=species:S:1:pos:R:3:forces:R:3 energy=-0.2615820737444285 pbc="F F F"
Li       0.00000000       0.00000000       0.00000000       0.00000000       0.00000000      58.44467926
Li       0.00000000       0.00000000       0.88545455       0.00000000       0.00000000     -58.44467926
2
Properties=species:S:1:pos:R:3:forces:R:3 energy=1.6345355196142008 pbc="F F F"
Li       0.00000000       0.00000000       0.00000000       0.00000000       0.00000000      15.48805523
Li       0.00000000       0.00000000       0.94424242       0.00000000       0.00000000     -15.48805523
2
Properties=species:S:1:pos:R:3:forces:R:3 energy=2.192237976998251 pbc="F F F"
Li       0.00000000       0.00000000       0.00000000       0.00000000       0.00000000       5.43900681
Li       0.00000000       0.00000000       1.00303030       0.00000000       0.00000000      -5.43900681
2
Properties=species:S:1:pos:R:3:forces:R:3 energy=2.3105212959091563 pbc="F F F"
Li       0.00000000       0.00000000       0.00000000       0.00000000       0.00000000      -1.74323702
Li       0.00000000       0.00000000       1.06181818       0.00000000       0.00000000       1.74323702
2
Properties=species:S:1:pos:R:3:forces:R:3 energy=2.0102684440449328 pbc="F F F"
Li       0.00000000       0.00000000       0.00000000       0.00000000       0.00000000      -7.60406971
Li       0.00000000       0.00000000       1.12060606       0.00000000       0.00000000       7.60406971
2
Properties=species:S:1:pos:R:3:forces:R:3 energy=1.5245377579703143 pbc="F F F"
Li       0.00000000       0.00000000       0.00000000       0.00000000       0.00000000      -8.29272652
Li       0.00000000       0.00000000       1.17939394       0.00000000       0.00000000       8.29272652
2
Properties=species:S:1:pos:R:3:forces:R:3 energy=1.076194347112327 pbc="F F F"
Li       0.00000000       0.00000000       0.00000000       0.00000000       0.00000000      -6.78959703
Li       0.00000000       0.00000000       1.23818182       0.00000000       0.00000000       6.78959703
2
Properties=species:S:1:pos:R:3:forces:R:3 energy=0.7308032074542776 pbc="F F F"
Li       0.00000000       0.00000000       0.00000000       0.00000000       0.00000000      -5.04336500
Li       0.00000000       0.00000000       1.29696970       0.00000000       0.00000000       5.04336500
2
Properties=species:S:1:pos:R:3:forces:R:3 energy=0.4665931508012624 pbc="F F F"
Li       0.00000000       0.00000000       0.00000000       0.00000000       0.00000000      -4.09072351
Li       0.00000000       0.00000000       1.35575758       0.00000000       0.00000000       4.09072351
2
Properties=species:S:1:pos:R:3:forces:R:3 energy=0.23793241914953953 pbc="F F F"
Li       0.00000000       0.00000000       0.00000000       0.00000000       0.00000000      -3.74144197
Li       0.00000000       0.00000000       1.41454545       0.00000000       0.00000000       3.74144197
2
Properties=species:S:1:pos:R:3:forces:R:3 energy=0.024114246822448625 pbc="F F F"
Li       0.00000000       0.00000000       0.00000000       0.00000000       0.00000000      -3.53789735
Li       0.00000000       0.00000000       1.47333333       0.00000000       0.00000000       3.53789735
2
Properties=species:S:1:pos:R:3:forces:R:3 energy=-0.17819707101675383 pbc="F F F"
Li       0.00000000       0.00000000       0.00000000       0.00000000       0.00000000      -3.34580255
Li       0.00000000       0.00000000       1.53212121       0.00000000       0.00000000       3.34580255
2
Properties=species:S:1:pos:R:3:forces:R:3 energy=-0.36951841555213805 pbc="F F F"
Li       0.00000000       0.00000000       0.00000000       0.00000000       0.00000000      -3.16662002
Li       0.00000000       0.00000000       1.59090909       0.00000000       0.00000000       3.16662002
2
Properties=species:S:1:pos:R:3:forces:R:3 energy=-0.551129844651545 pbc="F F F"
Li       0.00000000       0.00000000       0.00000000       0.00000000       0.00000000      -3.01879501
Li       0.00000000       0.00000000       1.64969697       0.00000000       0.00000000       3.01879501
2
Properties=species:S:1:pos:R:3:forces:R:3 energy=-0.7253509207917208 pbc="F F F"
Li       0.00000000       0.00000000       0.00000000       0.00000000       0.00000000      -2.91591358
Li       0.00000000       0.00000000       1.70848485       0.00000000       0.00000000       2.91591358
2
Properties=species:S:1:pos:R:3:forces:R:3 energy=-0.8947389089808202 pbc="F F F"
Li       0.00000000       0.00000000       0.00000000       0.00000000       0.00000000      -2.85160589
Li       0.00000000       0.00000000       1.76727273       0.00000000       0.00000000       2.85160589
2
Properties=species:S:1:pos:R:3:forces:R:3 energy=-1.0609529474797446 pbc="F F F"
Li       0.00000000       0.00000000       0.00000000       0.00000000       0.00000000      -2.80365372
Li       0.00000000       0.00000000       1.82606061       0.00000000       0.00000000       2.80365372
2
Properties=species:S:1:pos:R:3:forces:R:3 energy=-1.2241894832982296 pbc="F F F"
Li       0.00000000       0.00000000       0.00000000       0.00000000       0.00000000      -2.74614048
Li       0.00000000       0.00000000       1.88484848       0.00000000       0.00000000       2.74614048
2
Properties=species:S:1:pos:R:3:forces:R:3 energy=-1.3832152896042502 pbc="F F F"
Li       0.00000000       0.00000000       0.00000000       0.00000000       0.00000000      -2.65743494
Li       0.00000000       0.00000000       1.94363636       0.00000000       0.00000000       2.65743494
2
Properties=species:S:1:pos:R:3:forces:R:3 energy=-1.5357926900115821 pbc="F F F"
Li       0.00000000       0.00000000       0.00000000       0.00000000       0.00000000      -2.52595496
Li       0.00000000       0.00000000       2.00242424       0.00000000       0.00000000       2.52595496
2
Properties=species:S:1:pos:R:3:forces:R:3 energy=-1.6793892205879857 pbc="F F F"
Li       0.00000000       0.00000000       0.00000000       0.00000000       0.00000000      -2.35320282
Li       0.00000000       0.00000000       2.06121212       0.00000000       0.00000000       2.35320282
2
Properties=species:S:1:pos:R:3:forces:R:3 energy=-1.8118914705241698 pbc="F F F"
Li       0.00000000       0.00000000       0.00000000       0.00000000       0.00000000      -2.15096068
Li       0.00000000       0.00000000       2.12000000       0.00000000       0.00000000       2.15096068
2
Properties=species:S:1:pos:R:3:forces:R:3 energy=-1.9320081465607615 pbc="F F F"
Li       0.00000000       0.00000000       0.00000000       0.00000000       0.00000000      -1.93419790
Li       0.00000000       0.00000000       2.17878788       0.00000000       0.00000000       1.93419790
2
Properties=species:S:1:pos:R:3:forces:R:3 energy=-2.0392639053874944 pbc="F F F"
Li       0.00000000       0.00000000       0.00000000       0.00000000       0.00000000      -1.71508229
Li       0.00000000       0.00000000       2.23757576       0.00000000       0.00000000       1.71508229
2
Properties=species:S:1:pos:R:3:forces:R:3 energy=-2.1337657497650864 pbc="F F F"
Li       0.00000000       0.00000000       0.00000000       0.00000000       0.00000000      -1.50126529
Li       0.00000000       0.00000000       2.29636364       0.00000000       0.00000000       1.50126529
2
Properties=species:S:1:pos:R:3:forces:R:3 energy=-2.215970036928657 pbc="F F F"
Li       0.00000000       0.00000000       0.00000000       0.00000000       0.00000000      -1.29733789
Li       0.00000000       0.00000000       2.35515152       0.00000000       0.00000000       1.29733789
2
Properties=species:S:1:pos:R:3:forces:R:3 energy=-2.2865613452984954 pbc="F F F"
Li       0.00000000       0.00000000       0.00000000       0.00000000       0.00000000      -1.10663652
Li       0.00000000       0.00000000       2.41393939       0.00000000       0.00000000       1.10663652
2
Properties=species:S:1:pos:R:3:forces:R:3 energy=-2.3463989867109816 pbc="F F F"
Li       0.00000000       0.00000000       0.00000000       0.00000000       0.00000000      -0.93191034
Li       0.00000000       0.00000000       2.47272727       0.00000000       0.00000000       0.93191034
2
Properties=species:S:1:pos:R:3:forces:R:3 energy=-2.3964822091454066 pbc="F F F"
Li       0.00000000       0.00000000       0.00000000       0.00000000       0.00000000      -0.77502698
Li       0.00000000       0.00000000       2.53151515       0.00000000       0.00000000       0.77502698
2
Properties=species:S:1:pos:R:3:forces:R:3 energy=-2.4378831653853235 pbc="F F F"
Li       0.00000000       0.00000000       0.00000000       0.00000000       0.00000000      -0.63651150
Li       0.00000000       0.00000000       2.59030303       0.00000000       0.00000000       0.63651150
2
Properties=species:S:1:pos:R:3:forces:R:3 energy=-2.471661882205161 pbc="F F F"
Li       0.00000000       0.00000000       0.00000000       0.00000000       0.00000000      -0.51540208
Li       0.00000000       0.00000000       2.64909091       0.00000000       0.00000000       0.51540208
2
Properties=species:S:1:pos:R:3:forces:R:3 energy=-2.498786009687868 pbc="F F F"
Li       0.00000000       0.00000000       0.00000000       0.00000000       0.00000000      -0.40974978
Li       0.00000000       0.00000000       2.70787879       0.00000000       0.00000000       0.40974978
2
Properties=species:S:1:pos:R:3:forces:R:3 energy=-2.5200930919651925 pbc="F F F"
Li       0.00000000       0.00000000       0.00000000       0.00000000       0.00000000      -0.31710175
Li       0.00000000       0.00000000       2.76666667       0.00000000       0.00000000       0.31710175
2
Properties=species:S:1:pos:R:3:forces:R:3 energy=-2.536276033336734 pbc="F F F"
Li       0.00000000       0.00000000       0.00000000       0.00000000       0.00000000      -0.23500818
Li       0.00000000       0.00000000       2.82545455       0.00000000       0.00000000       0.23500818
2
Properties=species:S:1:pos:R:3:forces:R:3 energy=-2.547891018570011 pbc="F F F"
Li       0.00000000       0.00000000       0.00000000       0.00000000       0.00000000      -0.16146824
Li       0.00000000       0.00000000       2.88424242       0.00000000       0.00000000       0.16146824
2
Properties=species:S:1:pos:R:3:forces:R:3 energy=-2.5554056436350674 pbc="F F F"
Li       0.00000000       0.00000000       0.00000000       0.00000000       0.00000000      -0.09540401
Li       0.00000000       0.00000000       2.94303030       0.00000000       0.00000000       0.09540401
2
Properties=species:S:1:pos:R:3:forces:R:3 energy=-2.5592623090715203 pbc="F F F"
Li       0.00000000       0.00000000       0.00000000       0.00000000       0.00000000      -0.03725525
Li       0.00000000       0.00000000       3.00181818       0.00000000       0.00000000       0.03725525
2
Properties=species:S:1:pos:R:3:forces:R:3 energy=-2.559982707957605 pbc="F F F"
Li       0.00000000       0.00000000       0.00000000       0.00000000       0.00000000       0.01086388
Li       0.00000000       0.00000000       3.06060606       0.00000000       0.00000000      -0.01086388
2
Properties=species:S:1:pos:R:3:forces:R:3 energy=-2.5582056103197486 pbc="F F F"
Li       0.00000000       0.00000000       0.00000000       0.00000000       0.00000000       0.04808909
Li       0.00000000       0.00000000       3.11939394       0.00000000       0.00000000      -0.04808909
2
Properties=species:S:1:pos:R:3:forces:R:3 energy=-2.55438659031373 pbc="F F F"
Li       0.00000000       0.00000000       0.00000000       0.00000000       0.00000000       0.08282511
Li       0.00000000       0.00000000       3.17818182       0.00000000       0.00000000      -0.08282511
2
Properties=species:S:1:pos:R:3:forces:R:3 energy=-2.548155296090698 pbc="F F F"
Li       0.00000000       0.00000000       0.00000000       0.00000000       0.00000000       0.13303062
Li       0.00000000       0.00000000       3.23696970       0.00000000       0.00000000      -0.13303062
2
Properties=species:S:1:pos:R:3:forces:R:3 energy=-2.5382861948725677 pbc="F F F"
Li       0.00000000       0.00000000       0.00000000       0.00000000       0.00000000       0.20583275
Li       0.00000000       0.00000000       3.29575758       0.00000000       0.00000000      -0.20583275
2
Properties=species:S:1:pos:R:3:forces:R:3 energy=-2.523752051316061 pbc="F F F"
Li       0.00000000       0.00000000       0.00000000       0.00000000       0.00000000       0.28893566
Li       0.00000000       0.00000000       3.35454545       0.00000000       0.00000000      -0.28893566
2
Properties=species:S:1:pos:R:3:forces:R:3 energy=-2.504401686999159 pbc="F F F"
Li       0.00000000       0.00000000       0.00000000       0.00000000       0.00000000       0.36794937
Li       0.00000000       0.00000000       3.41333333       0.00000000       0.00000000      -0.36794937
2
Properties=species:S:1:pos:R:3:forces:R:3 energy=-2.4806895749008584 pbc="F F F"
Li       0.00000000       0.00000000       0.00000000       0.00000000       0.00000000       0.43700230
Li       0.00000000       0.00000000       3.47212121       0.00000000       0.00000000      -0.43700230
2
Properties=species:S:1:pos:R:3:forces:R:3 energy=-2.4532158824437147 pbc="F F F"
Li       0.00000000       0.00000000       0.00000000       0.00000000       0.00000000       0.49614155
Li       0.00000000       0.00000000       3.53090909       0.00000000       0.00000000      -0.49614155
2
Properties=species:S:1:pos:R:3:forces:R:3 energy=-2.4225150720994955 pbc="F F F"
Li       0.00000000       0.00000000       0.00000000       0.00000000       0.00000000       0.54710376
Li       0.00000000       0.00000000       3.58969697       0.00000000       0.00000000      -0.54710376
2
Properties=species:S:1:pos:R:3:forces:R:3 energy=-2.389020042154684 pbc="F F F"
Li       0.00000000       0.00000000       0.00000000       0.00000000       0.00000000       0.59138322
Li       0.00000000       0.00000000       3.64848485       0.00000000       0.00000000      -0.59138322
2
Properties=species:S:1:pos:R:3:forces:R:3 energy=-2.3530972522563665 pbc="F F F"
Li       0.00000000       0.00000000       0.00000000       0.00000000       0.00000000       0.62979633
Li       0.00000000       0.00000000       3.70727273       0.00000000       0.00000000      -0.62979633
2
Properties=species:S:1:pos:R:3:forces:R:3 energy=-2.3150818156487323 pbc="F F F"
Li       0.00000000       0.00000000       0.00000000       0.00000000       0.00000000       0.66255176
Li       0.00000000       0.00000000       3.76606061       0.00000000       0.00000000      -0.66255176
2
Properties=species:S:1:pos:R:3:forces:R:3 energy=-2.2753123779485356 pbc="F F F"
Li       0.00000000       0.00000000       0.00000000       0.00000000       0.00000000       0.68945622
Li       0.00000000       0.00000000       3.82484848       0.00000000       0.00000000      -0.68945622
2
Properties=species:S:1:pos:R:3:forces:R:3 energy=-2.2341407001594593 pbc="F F F"
Li       0.00000000       0.00000000       0.00000000       0.00000000       0.00000000       0.71010602
Li       0.00000000       0.00000000       3.88363636       0.00000000       0.00000000      -0.71010602
2
Properties=species:S:1:pos:R:3:forces:R:3 energy=-2.1919523784668637 pbc="F F F"
Li       0.00000000       0.00000000       0.00000000       0.00000000       0.00000000       0.72403568
Li       0.00000000       0.00000000       3.94242424       0.00000000       0.00000000      -0.72403568
2
Properties=species:S:1:pos:R:3:forces:R:3 energy=-2.149152625518822 pbc="F F F"
Li       0.00000000       0.00000000       0.00000000       0.00000000       0.00000000       0.73083007
Li       0.00000000       0.00000000       4.00121212       0.00000000       0.00000000      -0.73083007
2
Properties=species:S:1:pos:R:3:forces:R:3 energy=-2.106170841913183 pbc="F F F"
Li       0.00000000       0.00000000       0.00000000       0.00000000       0.00000000       0.73017555
Li       0.00000000       0.00000000       4.06000000       0.00000000       0.00000000      -0.73017555
2
Properties=species:S:1:pos:R:3:forces:R:3 energy=-2.0634510229458227 pbc="F F F"
Li       0.00000000       0.00000000       0.00000000       0.00000000       0.00000000       0.72190756
Li       0.00000000       0.00000000       4.11878788       0.00000000       0.00000000      -0.72190756
2
Properties=species:S:1:pos:R:3:forces:R:3 energy=-2.0214406604835324 pbc="F F F"
Li       0.00000000       0.00000000       0.00000000       0.00000000       0.00000000       0.70604509
Li       0.00000000       0.00000000       4.17757576       0.00000000       0.00000000      -0.70604509
2
Properties=species:S:1:pos:R:3:forces:R:3 energy=-1.9805806160141672 pbc="F F F"
Li       0.00000000       0.00000000       0.00000000       0.00000000       0.00000000       0.68283677
Li       0.00000000       0.00000000       4.23636364       0.00000000       0.00000000      -0.68283677
2
Properties=species:S:1:pos:R:3:forces:R:3 energy=-1.9412886427582732 pbc="F F F"
Li       0.00000000       0.00000000       0.00000000       0.00000000       0.00000000       0.65280819
Li       0.00000000       0.00000000       4.29515152       0.00000000       0.00000000      -0.65280819
2
Properties=species:S:1:pos:R:3:forces:R:3 energy=-1.9039438349445044 pbc="F F F"
Li       0.00000000       0.00000000       0.00000000       0.00000000       0.00000000       0.61681730
Li       0.00000000       0.00000000       4.35393939       0.00000000       0.00000000      -0.61681730
2
Properties=species:S:1:pos:R:3:forces:R:3 energy=-1.8688607110445403 pbc="F F F"
Li       0.00000000       0.00000000       0.00000000       0.00000000       0.00000000       0.57604396
Li       0.00000000       0.00000000       4.41272727       0.00000000       0.00000000      -0.57604396
2
Properties=species:S:1:pos:R:3:forces:R:3 energy=-1.8362793827584958 pbc="F F F"
Li       0.00000000       0.00000000       0.00000000       0.00000000       0.00000000       0.53196204
Li       0.00000000       0.00000000       4.47151515       0.00000000       0.00000000      -0.53196204
2
Properties=species:S:1:pos:R:3:forces:R:3 energy=-1.8063470609040118 pbc="F F F"
Li       0.00000000       0.00000000       0.00000000       0.00000000       0.00000000       0.48619875
Li       0.00000000       0.00000000       4.53030303       0.00000000       0.00000000      -0.48619875
2
Properties=species:S:1:pos:R:3:forces:R:3 energy=-1.779116097382468 pbc="F F F"
Li       0.00000000       0.00000000       0.00000000       0.00000000       0.00000000       0.44034433
Li       0.00000000       0.00000000       4.58909091       0.00000000       0.00000000      -0.44034433
2
Properties=species:S:1:pos:R:3:forces:R:3 energy=-1.754548932948476 pbc="F F F"
Li       0.00000000       0.00000000       0.00000000       0.00000000       0.00000000       0.39575675
Li       0.00000000       0.00000000       4.64787879       0.00000000       0.00000000      -0.39575675
2
Properties=species:S:1:pos:R:3:forces:R:3 energy=-1.7325400665652 pbc="F F F"
Li       0.00000000       0.00000000       0.00000000       0.00000000       0.00000000       0.35340756
Li       0.00000000       0.00000000       4.70666667       0.00000000       0.00000000      -0.35340756
2
Properties=species:S:1:pos:R:3:forces:R:3 energy=-1.7129414659899629 pbc="F F F"
Li       0.00000000       0.00000000       0.00000000       0.00000000       0.00000000       0.31385690
Li       0.00000000       0.00000000       4.76545455       0.00000000       0.00000000      -0.31385690
2
Properties=species:S:1:pos:R:3:forces:R:3 energy=-1.695578729552473 pbc="F F F"
Li       0.00000000       0.00000000       0.00000000       0.00000000       0.00000000       0.27733740
Li       0.00000000       0.00000000       4.82424242       0.00000000       0.00000000      -0.27733740
2
Properties=species:S:1:pos:R:3:forces:R:3 energy=-1.680272205206005 pbc="F F F"
Li       0.00000000       0.00000000       0.00000000       0.00000000       0.00000000       0.24398297
Li       0.00000000       0.00000000       4.88303030       0.00000000       0.00000000      -0.24398297
2
Properties=species:S:1:pos:R:3:forces:R:3 energy=-1.6668265844731673 pbc="F F F"
Li       0.00000000       0.00000000       0.00000000       0.00000000       0.00000000       0.21400945
Li       0.00000000       0.00000000       4.94181818       0.00000000       0.00000000      -0.21400945
2
Properties=species:S:1:pos:R:3:forces:R:3 energy=-1.6550341927886765 pbc="F F F"
Li       0.00000000       0.00000000       0.00000000       0.00000000       0.00000000       0.18783680
Li       0.00000000       0.00000000       5.00060606       0.00000000       0.00000000      -0.18783680
2
Properties=species:S:1:pos:R:3:forces:R:3 energy=-1.6446571334485014 pbc="F F F"
Li       0.00000000       0.00000000       0.00000000       0.00000000       0.00000000       0.16593847
Li       0.00000000       0.00000000       5.05939394       0.00000000       0.00000000      -0.16593847
2
Properties=species:S:1:pos:R:3:forces:R:3 energy=-1.6354356469312914 pbc="F F F"
Li       0.00000000       0.00000000       0.00000000       0.00000000       0.00000000       0.14850765
Li       0.00000000       0.00000000       5.11818182       0.00000000       0.00000000      -0.14850765
2
Properties=species:S:1:pos:R:3:forces:R:3 energy=-1.627119110065392 pbc="F F F"
Li       0.00000000       0.00000000       0.00000000       0.00000000       0.00000000       0.13500097
Li       0.00000000       0.00000000       5.17696970       0.00000000       0.00000000      -0.13500097
2
Properties=species:S:1:pos:R:3:forces:R:3 energy=-1.6195188172337167 pbc="F F F"
Li       0.00000000       0.00000000       0.00000000       0.00000000       0.00000000       0.12374213
Li       0.00000000       0.00000000       5.23575758       0.00000000       0.00000000      -0.12374213
2
Properties=species:S:1:pos:R:3:forces:R:3 energy=-1.6125800291340162 pbc="F F F"
Li       0.00000000       0.00000000       0.00000000       0.00000000       0.00000000       0.11199248
Li       0.00000000       0.00000000       5.29454545       0.00000000       0.00000000      -0.11199248
2
Properties=species:S:1:pos:R:3:forces:R:3 energy=-1.6064052661076726 pbc="F F F"
Li       0.00000000       0.00000000       0.00000000       0.00000000       0.00000000       0.09764040
Li       0.00000000       0.00000000       5.35333333       0.00000000       0.00000000      -0.09764040
2
Properties=species:S:1:pos:R:3:forces:R:3 energy=-1.6010952817794866 pbc="F F F"
Li       0.00000000       0.00000000       0.00000000       0.00000000       0.00000000       0.08379891
Li       0.00000000       0.00000000       5.41212121       0.00000000       0.00000000      -0.08379891
2
Properties=species:S:1:pos:R:3:forces:R:3 energy=-1.59635274919072 pbc="F F F"
Li       0.00000000       0.00000000       0.00000000       0.00000000       0.00000000       0.07977065
Li       0.00000000       0.00000000       5.47090909       0.00000000       0.00000000      -0.07977065
2
Properties=species:S:1:pos:R:3:forces:R:3 energy=-1.5915445470689098 pbc="F F F"
Li       0.00000000       0.00000000       0.00000000       0.00000000       0.00000000       0.08362280
Li       0.00000000       0.00000000       5.52969697       0.00000000       0.00000000      -0.08362280
2
Properties=species:S:1:pos:R:3:forces:R:3 energy=-1.5867474573801634 pbc="F F F"
Li       0.00000000       0.00000000       0.00000000       0.00000000       0.00000000       0.07676483
Li       0.00000000       0.00000000       5.58848485       0.00000000       0.00000000      -0.07676483
2
Properties=species:S:1:pos:R:3:forces:R:3 energy=-1.5827560759078683 pbc="F F F"
Li       0.00000000       0.00000000       0.00000000       0.00000000       0.00000000       0.05864362
Li       0.00000000       0.00000000       5.64727273       0.00000000       0.00000000      -0.05864362
2
Properties=species:S:1:pos:R:3:forces:R:3 energy=-1.5796579388766936 pbc="F F F"
Li       0.00000000       0.00000000       0.00000000       0.00000000       0.00000000       0.05013698
Li       0.00000000       0.00000000       5.70606061       0.00000000       0.00000000      -0.05013698
2
Properties=species:S:1:pos:R:3:forces:R:3 energy=-1.5764483050530271 pbc="F F F"
Li       0.00000000       0.00000000       0.00000000       0.00000000       0.00000000       0.06097519
Li       0.00000000       0.00000000       5.76484848       0.00000000       0.00000000      -0.06097519
2
Properties=species:S:1:pos:R:3:forces:R:3 energy=-1.5725913126813778 pbc="F F F"
Li       0.00000000       0.00000000       0.00000000       0.00000000       0.00000000       0.06686314
Li       0.00000000       0.00000000       5.82363636       0.00000000       0.00000000      -0.06686314
2
Properties=species:S:1:pos:R:3:forces:R:3 energy=-1.5691036984643922 pbc="F F F"
Li       0.00000000       0.00000000       0.00000000       0.00000000       0.00000000       0.04853625
Li       0.00000000       0.00000000       5.88242424       0.00000000       0.00000000      -0.04853625
2
Properties=species:S:1:pos:R:3:forces:R:3 energy=-1.5670318161095091 pbc="F F F"
Li       0.00000000       0.00000000       0.00000000       0.00000000       0.00000000       0.02263741
Li       0.00000000       0.00000000       5.94121212       0.00000000       0.00000000      -0.02263741
2
Properties=species:S:1:pos:R:3:forces:R:3 energy=-1.5661392691798504 pbc="F F F"
Li       0.00000000       0.00000000       0.00000000       0.00000000       0.00000000       0.01132155
Li       0.00000000       0.00000000       6.00000000       0.00000000       0.00000000      -0.01132155
