2
Properties=species:S:1:pos:R:3:forces:R:3 energy=1682125.483696629 pbc="F F F"
Mo       0.00000000       0.00000000       0.00000000       0.00000000       0.00000000 -570817.31250000
Mo       0.00000000       0.00000000       0.18000000       0.00000000       0.00000000  570817.31250000
2
Properties=species:S:1:pos:R:3:forces:R:3 energy=1630941.108696629 pbc="F F F"
Mo       0.00000000       0.00000000       0.00000000       0.00000000       0.00000000 -1270413.75000000
Mo       0.00000000       0.00000000       0.23878788       0.00000000       0.00000000 1270413.75000000
2
Properties=species:S:1:pos:R:3:forces:R:3 energy=1521170.358696629 pbc="F F F"
Mo       0.00000000       0.00000000       0.00000000       0.00000000       0.00000000 -2556567.50000000
Mo       0.00000000       0.00000000       0.29757576       0.00000000       0.00000000 2556567.50000000
2
Properties=species:S:1:pos:R:3:forces:R:3 energy=1321368.608696629 pbc="F F F"
Mo       0.00000000       0.00000000       0.00000000       0.00000000       0.00000000 -4280111.00000000
Mo       0.00000000       0.00000000       0.35636364       0.00000000       0.00000000 4280111.00000000
2
Properties=species:S:1:pos:R:3:forces:R:3 energy=1018329.9211966291 pbc="F F F"
Mo       0.00000000       0.00000000       0.00000000       0.00000000       0.00000000 -5956549.50000000
Mo       0.00000000       0.00000000       0.41515152       0.00000000       0.00000000 5956549.50000000
2
Properties=species:S:1:pos:R:3:forces:R:3 energy=647738.1086966291 pbc="F F F"
Mo       0.00000000       0.00000000       0.00000000       0.00000000       0.00000000 -6373834.50000000
Mo       0.00000000       0.00000000       0.47393939       0.00000000       0.00000000 6373834.50000000
2
Properties=species:S:1:pos:R:3:forces:R:3 energy=306040.01494663226 pbc="F F F"
Mo       0.00000000       0.00000000       0.00000000       0.00000000       0.00000000 -4947598.00000000
Mo       0.00000000       0.00000000       0.53272727       0.00000000       0.00000000 4947598.00000000
2
Properties=species:S:1:pos:R:3:forces:R:3 energy=89169.84307163859 pbc="F F F"
Mo       0.00000000       0.00000000       0.00000000       0.00000000       0.00000000 -2408336.50000000
Mo       0.00000000       0.00000000       0.59151515       0.00000000       0.00000000 2408336.50000000
2
Properties=species:S:1:pos:R:3:forces:R:3 energy=12840.500298209008 pbc="F F F"
Mo       0.00000000       0.00000000       0.00000000       0.00000000       0.00000000 -449961.15625000
Mo       0.00000000       0.00000000       0.65030303       0.00000000       0.00000000  449961.15625000
2
Properties=species:S:1:pos:R:3:forces:R:3 energy=4896.488579470096 pbc="F F F"
Mo       0.00000000       0.00000000       0.00000000       0.00000000       0.00000000  126330.17187500
Mo       0.00000000       0.00000000       0.70909091       0.00000000       0.00000000 -126330.17187500
2
Properties=species:S:1:pos:R:3:forces:R:3 energy=7869.795708395352 pbc="F F F"
Mo       0.00000000       0.00000000       0.00000000       0.00000000       0.00000000   -8364.38769531
Mo       0.00000000       0.00000000       0.76787879       0.00000000       0.00000000    8364.38769531
2
Properties=species:S:1:pos:R:3:forces:R:3 energy=4329.737602955113 pbc="F F F"
Mo       0.00000000       0.00000000       0.00000000       0.00000000       0.00000000     310.94921875
Mo       0.00000000       0.00000000       0.82666667       0.00000000       0.00000000    -310.94921875
2
Properties=species:S:1:pos:R:3:forces:R:3 energy=3425.112847133752 pbc="F F F"
Mo       0.00000000       0.00000000       0.00000000       0.00000000       0.00000000  -22768.13476562
Mo       0.00000000       0.00000000       0.88545455       0.00000000       0.00000000   22768.13476562
2
Properties=species:S:1:pos:R:3:forces:R:3 energy=1993.0265434766675 pbc="F F F"
Mo       0.00000000       0.00000000       0.00000000       0.00000000       0.00000000  -22891.08593750
Mo       0.00000000       0.00000000       0.94424242       0.00000000       0.00000000   22891.08593750
2
Properties=species:S:1:pos:R:3:forces:R:3 energy=905.5017022441014 pbc="F F F"
Mo       0.00000000       0.00000000       0.00000000       0.00000000       0.00000000  -14093.04882812
Mo       0.00000000       0.00000000       1.00303030       0.00000000       0.00000000   14093.04882812
2
Properties=species:S:1:pos:R:3:forces:R:3 energy=266.1006708497472 pbc="F F F"
Mo       0.00000000       0.00000000       0.00000000       0.00000000       0.00000000   -7943.16552734
Mo       0.00000000       0.00000000       1.06181818       0.00000000       0.00000000    7943.16552734
2
Properties=species:S:1:pos:R:3:forces:R:3 energy=-56.289145302967896 pbc="F F F"
Mo       0.00000000       0.00000000       0.00000000       0.00000000       0.00000000   -3565.45605469
Mo       0.00000000       0.00000000       1.12060606       0.00000000       0.00000000    3565.45605469
2
Properties=species:S:1:pos:R:3:forces:R:3 energy=-104.47302879572986 pbc="F F F"
Mo       0.00000000       0.00000000       0.00000000       0.00000000       0.00000000     319.29211426
Mo       0.00000000       0.00000000       1.17939394       0.00000000       0.00000000    -319.29211426
2
Properties=species:S:1:pos:R:3:forces:R:3 energy=-88.28636780421293 pbc="F F F"
Mo       0.00000000       0.00000000       0.00000000       0.00000000       0.00000000     238.81282043
Mo       0.00000000       0.00000000       1.23818182       0.00000000       0.00000000    -238.81282043
2
Properties=species:S:1:pos:R:3:forces:R:3 energy=-76.37084017852676 pbc="F F F"
Mo       0.00000000       0.00000000       0.00000000       0.00000000       0.00000000     168.59454346
Mo       0.00000000       0.00000000       1.29696970       0.00000000       0.00000000    -168.59454346
2
Properties=species:S:1:pos:R:3:forces:R:3 energy=-68.29092954224254 pbc="F F F"
Mo       0.00000000       0.00000000       0.00000000       0.00000000       0.00000000     110.26184082
Mo       0.00000000       0.00000000       1.35575758       0.00000000       0.00000000    -110.26184082
2
Properties=species:S:1:pos:R:3:forces:R:3 energy=-62.205186143556254 pbc="F F F"
Mo       0.00000000       0.00000000       0.00000000       0.00000000       0.00000000     106.90555573
Mo       0.00000000       0.00000000       1.41454545       0.00000000       0.00000000    -106.90555573
2
Properties=species:S:1:pos:R:3:forces:R:3 energy=-55.992092786816215 pbc="F F F"
Mo       0.00000000       0.00000000       0.00000000       0.00000000       0.00000000      95.63133240
Mo       0.00000000       0.00000000       1.47333333       0.00000000       0.00000000     -95.63133240
2
Properties=species:S:1:pos:R:3:forces:R:3 energy=-51.46139142847635 pbc="F F F"
Mo       0.00000000       0.00000000       0.00000000       0.00000000       0.00000000      58.78127670
Mo       0.00000000       0.00000000       1.53212121       0.00000000       0.00000000     -58.78127670
2
Properties=species:S:1:pos:R:3:forces:R:3 energy=-48.84342872129766 pbc="F F F"
Mo       0.00000000       0.00000000       0.00000000       0.00000000       0.00000000      33.03276062
Mo       0.00000000       0.00000000       1.59090909       0.00000000       0.00000000     -33.03276062
2
Properties=species:S:1:pos:R:3:forces:R:3 energy=-47.24815947708979 pbc="F F F"
Mo       0.00000000       0.00000000       0.00000000       0.00000000       0.00000000      23.89096832
Mo       0.00000000       0.00000000       1.64969697       0.00000000       0.00000000     -23.89096832
2
Properties=species:S:1:pos:R:3:forces:R:3 energy=-45.84393771285353 pbc="F F F"
Mo       0.00000000       0.00000000       0.00000000       0.00000000       0.00000000      23.88372612
Mo       0.00000000       0.00000000       1.70848485       0.00000000       0.00000000     -23.88372612
2
Properties=species:S:1:pos:R:3:forces:R:3 energy=-44.5682138042623 pbc="F F F"
Mo       0.00000000       0.00000000       0.00000000       0.00000000       0.00000000      18.28556633
Mo       0.00000000       0.00000000       1.76727273       0.00000000       0.00000000     -18.28556633
2
Properties=species:S:1:pos:R:3:forces:R:3 energy=-43.75500643483282 pbc="F F F"
Mo       0.00000000       0.00000000       0.00000000       0.00000000       0.00000000       9.52406120
Mo       0.00000000       0.00000000       1.82606061       0.00000000       0.00000000      -9.52406120
2
Properties=species:S:1:pos:R:3:forces:R:3 energy=-43.39765896258831 pbc="F F F"
Mo       0.00000000       0.00000000       0.00000000       0.00000000       0.00000000       3.19215965
Mo       0.00000000       0.00000000       1.88484848       0.00000000       0.00000000      -3.19215965
2
Properties=species:S:1:pos:R:3:forces:R:3 energy=-43.3104452375964 pbc="F F F"
Mo       0.00000000       0.00000000       0.00000000       0.00000000       0.00000000       0.34116837
Mo       0.00000000       0.00000000       1.94363636       0.00000000       0.00000000      -0.34116837
2
Properties=species:S:1:pos:R:3:forces:R:3 energy=-43.30386266416987 pbc="F F F"
Mo       0.00000000       0.00000000       0.00000000       0.00000000       0.00000000       0.19212463
Mo       0.00000000       0.00000000       2.00242424       0.00000000       0.00000000      -0.19212463
2
Properties=species:S:1:pos:R:3:forces:R:3 energy=-43.26979908766951 pbc="F F F"
Mo       0.00000000       0.00000000       0.00000000       0.00000000       0.00000000       0.98403704
Mo       0.00000000       0.00000000       2.06121212       0.00000000       0.00000000      -0.98403704
2
Properties=species:S:1:pos:R:3:forces:R:3 energy=-43.19624247940443 pbc="F F F"
Mo       0.00000000       0.00000000       0.00000000       0.00000000       0.00000000       1.40226686
Mo       0.00000000       0.00000000       2.12000000       0.00000000       0.00000000      -1.40226686
2
Properties=species:S:1:pos:R:3:forces:R:3 energy=-43.118223955138724 pbc="F F F"
Mo       0.00000000       0.00000000       0.00000000       0.00000000       0.00000000       1.16524005
Mo       0.00000000       0.00000000       2.17878788       0.00000000       0.00000000      -1.16524005
2
Properties=species:S:1:pos:R:3:forces:R:3 energy=-43.06435508435334 pbc="F F F"
Mo       0.00000000       0.00000000       0.00000000       0.00000000       0.00000000       0.66840345
Mo       0.00000000       0.00000000       2.23757576       0.00000000       0.00000000      -0.66840345
2
Properties=species:S:1:pos:R:3:forces:R:3 energy=-43.03534755169091 pbc="F F F"
Mo       0.00000000       0.00000000       0.00000000       0.00000000       0.00000000       0.37973315
Mo       0.00000000       0.00000000       2.29636364       0.00000000       0.00000000      -0.37973315
2
Properties=species:S:1:pos:R:3:forces:R:3 energy=-43.01185672256715 pbc="F F F"
Mo       0.00000000       0.00000000       0.00000000       0.00000000       0.00000000       0.47828481
Mo       0.00000000       0.00000000       2.35515152       0.00000000       0.00000000      -0.47828481
2
Properties=species:S:1:pos:R:3:forces:R:3 energy=-42.97480307403453 pbc="F F F"
Mo       0.00000000       0.00000000       0.00000000       0.00000000       0.00000000       0.79385960
Mo       0.00000000       0.00000000       2.41393939       0.00000000       0.00000000      -0.79385960
2
Properties=species:S:1:pos:R:3:forces:R:3 energy=-42.91928522251165 pbc="F F F"
Mo       0.00000000       0.00000000       0.00000000       0.00000000       0.00000000       1.08064914
Mo       0.00000000       0.00000000       2.47272727       0.00000000       0.00000000      -1.08064914
2
Properties=species:S:1:pos:R:3:forces:R:3 energy=-42.848473876428905 pbc="F F F"
Mo       0.00000000       0.00000000       0.00000000       0.00000000       0.00000000       1.33585906
Mo       0.00000000       0.00000000       2.53151515       0.00000000       0.00000000      -1.33585906
2
Properties=species:S:1:pos:R:3:forces:R:3 energy=-42.76015881974091 pbc="F F F"
Mo       0.00000000       0.00000000       0.00000000       0.00000000       0.00000000       1.68782866
Mo       0.00000000       0.00000000       2.59030303       0.00000000       0.00000000      -1.68782866
2
Properties=species:S:1:pos:R:3:forces:R:3 energy=-42.64905096894885 pbc="F F F"
Mo       0.00000000       0.00000000       0.00000000       0.00000000       0.00000000       2.08568382
Mo       0.00000000       0.00000000       2.64909091       0.00000000       0.00000000      -2.08568382
2
Properties=species:S:1:pos:R:3:forces:R:3 energy=-42.51713275710386 pbc="F F F"
Mo       0.00000000       0.00000000       0.00000000       0.00000000       0.00000000       2.37574267
Mo       0.00000000       0.00000000       2.70787879       0.00000000       0.00000000      -2.37574267
2
Properties=species:S:1:pos:R:3:forces:R:3 energy=-42.37309892459724 pbc="F F F"
Mo       0.00000000       0.00000000       0.00000000       0.00000000       0.00000000       2.49455380
Mo       0.00000000       0.00000000       2.76666667       0.00000000       0.00000000      -2.49455380
2
Properties=species:S:1:pos:R:3:forces:R:3 energy=-42.22767070592126 pbc="F F F"
Mo       0.00000000       0.00000000       0.00000000       0.00000000       0.00000000       2.41619754
Mo       0.00000000       0.00000000       2.82545455       0.00000000       0.00000000      -2.41619754
2
Properties=species:S:1:pos:R:3:forces:R:3 energy=-42.093787420847306 pbc="F F F"
Mo       0.00000000       0.00000000       0.00000000       0.00000000       0.00000000       2.09624863
Mo       0.00000000       0.00000000       2.88424242       0.00000000       0.00000000      -2.09624863
2
Properties=species:S:1:pos:R:3:forces:R:3 energy=-41.98576263412779 pbc="F F F"
Mo       0.00000000       0.00000000       0.00000000       0.00000000       0.00000000       1.54753137
Mo       0.00000000       0.00000000       2.94303030       0.00000000       0.00000000      -1.54753137
2
Properties=species:S:1:pos:R:3:forces:R:3 energy=-41.914117120803766 pbc="F F F"
Mo       0.00000000       0.00000000       0.00000000       0.00000000       0.00000000       0.88440716
Mo       0.00000000       0.00000000       3.00181818       0.00000000       0.00000000      -0.88440716
2
Properties=species:S:1:pos:R:3:forces:R:3 energy=-41.88067730538466 pbc="F F F"
Mo       0.00000000       0.00000000       0.00000000       0.00000000       0.00000000       0.27636021
Mo       0.00000000       0.00000000       3.06060606       0.00000000       0.00000000      -0.27636021
2
Properties=species:S:1:pos:R:3:forces:R:3 energy=-41.8777825766461 pbc="F F F"
Mo       0.00000000       0.00000000       0.00000000       0.00000000       0.00000000      -0.14020203
Mo       0.00000000       0.00000000       3.11939394       0.00000000       0.00000000       0.14020203
2
Properties=species:S:1:pos:R:3:forces:R:3 energy=-41.89300788859931 pbc="F F F"
Mo       0.00000000       0.00000000       0.00000000       0.00000000       0.00000000      -0.34905335
Mo       0.00000000       0.00000000       3.17818182       0.00000000       0.00000000       0.34905335
2
Properties=species:S:1:pos:R:3:forces:R:3 energy=-41.91655657646904 pbc="F F F"
Mo       0.00000000       0.00000000       0.00000000       0.00000000       0.00000000      -0.44180346
Mo       0.00000000       0.00000000       3.23696970       0.00000000       0.00000000       0.44180346
2
Properties=species:S:1:pos:R:3:forces:R:3 energy=-41.94437666728203 pbc="F F F"
Mo       0.00000000       0.00000000       0.00000000       0.00000000       0.00000000      -0.50147986
Mo       0.00000000       0.00000000       3.29575758       0.00000000       0.00000000       0.50147986
2
Properties=species:S:1:pos:R:3:forces:R:3 energy=-41.974796773350214 pbc="F F F"
Mo       0.00000000       0.00000000       0.00000000       0.00000000       0.00000000      -0.52237678
Mo       0.00000000       0.00000000       3.35454545       0.00000000       0.00000000       0.52237678
2
Properties=species:S:1:pos:R:3:forces:R:3 energy=-42.003849609822446 pbc="F F F"
Mo       0.00000000       0.00000000       0.00000000       0.00000000       0.00000000      -0.44507456
Mo       0.00000000       0.00000000       3.41333333       0.00000000       0.00000000       0.44507456
2
Properties=species:S:1:pos:R:3:forces:R:3 energy=-42.02451835754113 pbc="F F F"
Mo       0.00000000       0.00000000       0.00000000       0.00000000       0.00000000      -0.23699330
Mo       0.00000000       0.00000000       3.47212121       0.00000000       0.00000000       0.23699330
2
Properties=species:S:1:pos:R:3:forces:R:3 energy=-42.02971575248184 pbc="F F F"
Mo       0.00000000       0.00000000       0.00000000       0.00000000       0.00000000       0.07156657
Mo       0.00000000       0.00000000       3.53090909       0.00000000       0.00000000      -0.07156657
2
Properties=species:S:1:pos:R:3:forces:R:3 energy=-42.015512504405514 pbc="F F F"
Mo       0.00000000       0.00000000       0.00000000       0.00000000       0.00000000       0.41042194
Mo       0.00000000       0.00000000       3.58969697       0.00000000       0.00000000      -0.41042194
2
Properties=species:S:1:pos:R:3:forces:R:3 energy=-41.98218294206177 pbc="F F F"
Mo       0.00000000       0.00000000       0.00000000       0.00000000       0.00000000       0.71375394
Mo       0.00000000       0.00000000       3.64848485       0.00000000       0.00000000      -0.71375394
2
Properties=species:S:1:pos:R:3:forces:R:3 energy=-41.932961551761025 pbc="F F F"
Mo       0.00000000       0.00000000       0.00000000       0.00000000       0.00000000       0.94844896
Mo       0.00000000       0.00000000       3.70727273       0.00000000       0.00000000      -0.94844896
2
Properties=species:S:1:pos:R:3:forces:R:3 energy=-41.872028785540024 pbc="F F F"
Mo       0.00000000       0.00000000       0.00000000       0.00000000       0.00000000       1.11419308
Mo       0.00000000       0.00000000       3.76606061       0.00000000       0.00000000      -1.11419308
2
Properties=species:S:1:pos:R:3:forces:R:3 energy=-41.803004426804286 pbc="F F F"
Mo       0.00000000       0.00000000       0.00000000       0.00000000       0.00000000       1.22656536
Mo       0.00000000       0.00000000       3.82484848       0.00000000       0.00000000      -1.22656536
2
Properties=species:S:1:pos:R:3:forces:R:3 energy=-41.72855067807883 pbc="F F F"
Mo       0.00000000       0.00000000       0.00000000       0.00000000       0.00000000       1.30097425
Mo       0.00000000       0.00000000       3.88363636       0.00000000       0.00000000      -1.30097425
2
Properties=species:S:1:pos:R:3:forces:R:3 energy=-41.65060881479063 pbc="F F F"
Mo       0.00000000       0.00000000       0.00000000       0.00000000       0.00000000       1.34628546
Mo       0.00000000       0.00000000       3.94242424       0.00000000       0.00000000      -1.34628546
2
Properties=species:S:1:pos:R:3:forces:R:3 energy=-41.57076534393703 pbc="F F F"
Mo       0.00000000       0.00000000       0.00000000       0.00000000       0.00000000       1.36594403
Mo       0.00000000       0.00000000       4.00121212       0.00000000       0.00000000      -1.36594403
2
Properties=species:S:1:pos:R:3:forces:R:3 energy=-41.49049230625486 pbc="F F F"
Mo       0.00000000       0.00000000       0.00000000       0.00000000       0.00000000       1.36077094
Mo       0.00000000       0.00000000       4.06000000       0.00000000       0.00000000      -1.36077094
2
Properties=species:S:1:pos:R:3:forces:R:3 energy=-41.411261828012094 pbc="F F F"
Mo       0.00000000       0.00000000       0.00000000       0.00000000       0.00000000       1.33044517
Mo       0.00000000       0.00000000       4.11878788       0.00000000       0.00000000      -1.33044517
2
Properties=species:S:1:pos:R:3:forces:R:3 energy=-41.33458033765785 pbc="F F F"
Mo       0.00000000       0.00000000       0.00000000       0.00000000       0.00000000       1.27387464
Mo       0.00000000       0.00000000       4.17757576       0.00000000       0.00000000      -1.27387464
2
Properties=species:S:1:pos:R:3:forces:R:3 energy=-41.2620229757093 pbc="F F F"
Mo       0.00000000       0.00000000       0.00000000       0.00000000       0.00000000       1.18993509
Mo       0.00000000       0.00000000       4.23636364       0.00000000       0.00000000      -1.18993509
2
Properties=species:S:1:pos:R:3:forces:R:3 energy=-41.19520304707934 pbc="F F F"
Mo       0.00000000       0.00000000       0.00000000       0.00000000       0.00000000       1.07888186
Mo       0.00000000       0.00000000       4.29515152       0.00000000       0.00000000      -1.07888186
2
Properties=species:S:1:pos:R:3:forces:R:3 energy=-41.13564618516799 pbc="F F F"
Mo       0.00000000       0.00000000       0.00000000       0.00000000       0.00000000       0.94376183
Mo       0.00000000       0.00000000       4.35393939       0.00000000       0.00000000      -0.94376183
2
Properties=species:S:1:pos:R:3:forces:R:3 energy=-41.08459575953631 pbc="F F F"
Mo       0.00000000       0.00000000       0.00000000       0.00000000       0.00000000       0.79068738
Mo       0.00000000       0.00000000       4.41272727       0.00000000       0.00000000      -0.79068738
2
Properties=species:S:1:pos:R:3:forces:R:3 energy=-41.04286794275283 pbc="F F F"
Mo       0.00000000       0.00000000       0.00000000       0.00000000       0.00000000       0.62805855
Mo       0.00000000       0.00000000       4.47151515       0.00000000       0.00000000      -0.62805855
2
Properties=species:S:1:pos:R:3:forces:R:3 energy=-41.01075255043942 pbc="F F F"
Mo       0.00000000       0.00000000       0.00000000       0.00000000       0.00000000       0.46521407
Mo       0.00000000       0.00000000       4.53030303       0.00000000       0.00000000      -0.46521407
2
Properties=species:S:1:pos:R:3:forces:R:3 energy=-40.98799395036196 pbc="F F F"
Mo       0.00000000       0.00000000       0.00000000       0.00000000       0.00000000       0.31131670
Mo       0.00000000       0.00000000       4.58909091       0.00000000       0.00000000      -0.31131670
2
Properties=species:S:1:pos:R:3:forces:R:3 energy=-40.973813966453015 pbc="F F F"
Mo       0.00000000       0.00000000       0.00000000       0.00000000       0.00000000       0.17450003
Mo       0.00000000       0.00000000       4.64787879       0.00000000       0.00000000      -0.17450003
2
Properties=species:S:1:pos:R:3:forces:R:3 energy=-40.96701488514149 pbc="F F F"
Mo       0.00000000       0.00000000       0.00000000       0.00000000       0.00000000       0.06111592
Mo       0.00000000       0.00000000       4.70666667       0.00000000       0.00000000      -0.06111592
2
Properties=species:S:1:pos:R:3:forces:R:3 energy=-40.96609388993494 pbc="F F F"
Mo       0.00000000       0.00000000       0.00000000       0.00000000       0.00000000      -0.02499072
Mo       0.00000000       0.00000000       4.76545455       0.00000000       0.00000000       0.02499072
2
Properties=species:S:1:pos:R:3:forces:R:3 energy=-40.96939947034313 pbc="F F F"
Mo       0.00000000       0.00000000       0.00000000       0.00000000       0.00000000      -0.08287913
Mo       0.00000000       0.00000000       4.82424242       0.00000000       0.00000000       0.08287913
2
Properties=species:S:1:pos:R:3:forces:R:3 energy=-40.97531073165642 pbc="F F F"
Mo       0.00000000       0.00000000       0.00000000       0.00000000       0.00000000      -0.11400650
Mo       0.00000000       0.00000000       4.88303030       0.00000000       0.00000000       0.11400650
2
Properties=species:S:1:pos:R:3:forces:R:3 energy=-40.982328919169774 pbc="F F F"
Mo       0.00000000       0.00000000       0.00000000       0.00000000       0.00000000      -0.12097507
Mo       0.00000000       0.00000000       4.94181818       0.00000000       0.00000000       0.12097507
2
Properties=species:S:1:pos:R:3:forces:R:3 energy=-40.98910795476778 pbc="F F F"
Mo       0.00000000       0.00000000       0.00000000       0.00000000       0.00000000      -0.10609941
Mo       0.00000000       0.00000000       5.00060606       0.00000000       0.00000000       0.10609941
2
Properties=species:S:1:pos:R:3:forces:R:3 energy=-40.99440867006098 pbc="F F F"
Mo       0.00000000       0.00000000       0.00000000       0.00000000       0.00000000      -0.07102317
Mo       0.00000000       0.00000000       5.05939394       0.00000000       0.00000000       0.07102317
2
Properties=species:S:1:pos:R:3:forces:R:3 energy=-40.997106404102105 pbc="F F F"
Mo       0.00000000       0.00000000       0.00000000       0.00000000       0.00000000      -0.01806184
Mo       0.00000000       0.00000000       5.11818182       0.00000000       0.00000000       0.01806184
2
Properties=species:S:1:pos:R:3:forces:R:3 energy=-40.996294011299725 pbc="F F F"
Mo       0.00000000       0.00000000       0.00000000       0.00000000       0.00000000       0.04692673
Mo       0.00000000       0.00000000       5.17696970       0.00000000       0.00000000      -0.04692673
2
Properties=species:S:1:pos:R:3:forces:R:3 energy=-40.99158322408604 pbc="F F F"
Mo       0.00000000       0.00000000       0.00000000       0.00000000       0.00000000       0.11190395
Mo       0.00000000       0.00000000       5.23575758       0.00000000       0.00000000      -0.11190395
2
Properties=species:S:1:pos:R:3:forces:R:3 energy=-40.98347846949033 pbc="F F F"
Mo       0.00000000       0.00000000       0.00000000       0.00000000       0.00000000       0.15951939
Mo       0.00000000       0.00000000       5.29454545       0.00000000       0.00000000      -0.15951939
2
Properties=species:S:1:pos:R:3:forces:R:3 energy=-40.973437913798605 pbc="F F F"
Mo       0.00000000       0.00000000       0.00000000       0.00000000       0.00000000       0.17695600
Mo       0.00000000       0.00000000       5.35333333       0.00000000       0.00000000      -0.17695600
2
Properties=species:S:1:pos:R:3:forces:R:3 energy=-40.96304945309824 pbc="F F F"
Mo       0.00000000       0.00000000       0.00000000       0.00000000       0.00000000       0.17624612
Mo       0.00000000       0.00000000       5.41212121       0.00000000       0.00000000      -0.17624612
2
Properties=species:S:1:pos:R:3:forces:R:3 energy=-40.95232174474205 pbc="F F F"
Mo       0.00000000       0.00000000       0.00000000       0.00000000       0.00000000       0.19389305
Mo       0.00000000       0.00000000       5.47090909       0.00000000       0.00000000      -0.19389305
2
Properties=species:S:1:pos:R:3:forces:R:3 energy=-40.940004612616264 pbc="F F F"
Mo       0.00000000       0.00000000       0.00000000       0.00000000       0.00000000       0.22172450
Mo       0.00000000       0.00000000       5.52969697       0.00000000       0.00000000      -0.22172450
2
Properties=species:S:1:pos:R:3:forces:R:3 energy=-40.92717485227478 pbc="F F F"
Mo       0.00000000       0.00000000       0.00000000       0.00000000       0.00000000       0.20615342
Mo       0.00000000       0.00000000       5.58848485       0.00000000       0.00000000      -0.20615342
2
Properties=species:S:1:pos:R:3:forces:R:3 energy=-40.91632451987661 pbc="F F F"
Mo       0.00000000       0.00000000       0.00000000       0.00000000       0.00000000       0.16330470
Mo       0.00000000       0.00000000       5.64727273       0.00000000       0.00000000      -0.16330470
2
Properties=species:S:1:pos:R:3:forces:R:3 energy=-40.90744702269703 pbc="F F F"
Mo       0.00000000       0.00000000       0.00000000       0.00000000       0.00000000       0.14542475
Mo       0.00000000       0.00000000       5.70606061       0.00000000       0.00000000      -0.14542475
2
Properties=species:S:1:pos:R:3:forces:R:3 energy=-40.89870849871869 pbc="F F F"
Mo       0.00000000       0.00000000       0.00000000       0.00000000       0.00000000       0.14997733
Mo       0.00000000       0.00000000       5.76484848       0.00000000       0.00000000      -0.14997733
2
Properties=species:S:1:pos:R:3:forces:R:3 energy=-40.89062110811159 pbc="F F F"
Mo       0.00000000       0.00000000       0.00000000       0.00000000       0.00000000       0.11708001
Mo       0.00000000       0.00000000       5.82363636       0.00000000       0.00000000      -0.11708001
2
Properties=species:S:1:pos:R:3:forces:R:3 energy=-40.88549366693353 pbc="F F F"
Mo       0.00000000       0.00000000       0.00000000       0.00000000       0.00000000       0.05828071
Mo       0.00000000       0.00000000       5.88242424       0.00000000       0.00000000      -0.05828071
2
Properties=species:S:1:pos:R:3:forces:R:3 energy=-40.883346129325396 pbc="F F F"
Mo       0.00000000       0.00000000       0.00000000       0.00000000       0.00000000       0.01905924
Mo       0.00000000       0.00000000       5.94121212       0.00000000       0.00000000      -0.01905924
2
Properties=species:S:1:pos:R:3:forces:R:3 energy=-40.88272973079219 pbc="F F F"
Mo       0.00000000       0.00000000       0.00000000       0.00000000       0.00000000       0.00628313
Mo       0.00000000       0.00000000       6.00000000       0.00000000       0.00000000      -0.00628313
