2
Properties=species:S:1:pos:R:3:forces:R:3 energy=15089686.966323523 pbc="F F F"
Np       0.00000000       0.00000000       0.00000000       0.00000000       0.00000000 -1711255.25000000
Np       0.00000000       0.00000000       0.18000000       0.00000000       0.00000000 1711255.25000000
2
Properties=species:S:1:pos:R:3:forces:R:3 energy=14937302.966323523 pbc="F F F"
Np       0.00000000       0.00000000       0.00000000       0.00000000       0.00000000 -3792584.25000000
Np       0.00000000       0.00000000       0.23878788       0.00000000       0.00000000 3792584.25000000
2
Properties=species:S:1:pos:R:3:forces:R:3 energy=14602961.966323523 pbc="F F F"
Np       0.00000000       0.00000000       0.00000000       0.00000000       0.00000000 -7957978.50000000
Np       0.00000000       0.00000000       0.29757576       0.00000000       0.00000000 7957978.50000000
2
Properties=species:S:1:pos:R:3:forces:R:3 energy=13955149.966323523 pbc="F F F"
Np       0.00000000       0.00000000       0.00000000       0.00000000       0.00000000 -14482763.00000000
Np       0.00000000       0.00000000       0.35636364       0.00000000       0.00000000 14482763.00000000
2
Properties=species:S:1:pos:R:3:forces:R:3 energy=12857095.966323523 pbc="F F F"
Np       0.00000000       0.00000000       0.00000000       0.00000000       0.00000000 -23165122.00000000
Np       0.00000000       0.00000000       0.41515152       0.00000000       0.00000000 23165122.00000000
2
Properties=species:S:1:pos:R:3:forces:R:3 energy=11211946.966323527 pbc="F F F"
Np       0.00000000       0.00000000       0.00000000       0.00000000       0.00000000 -32794200.00000000
Np       0.00000000       0.00000000       0.47393939       0.00000000       0.00000000 32794200.00000000
2
Properties=species:S:1:pos:R:3:forces:R:3 energy=9067239.966323528 pbc="F F F"
Np       0.00000000       0.00000000       0.00000000       0.00000000       0.00000000 -39827812.00000000
Np       0.00000000       0.00000000       0.53272727       0.00000000       0.00000000 39827812.00000000
2
Properties=species:S:1:pos:R:3:forces:R:3 energy=6592448.466323532 pbc="F F F"
Np       0.00000000       0.00000000       0.00000000       0.00000000       0.00000000 -43345316.00000000
Np       0.00000000       0.00000000       0.59151515       0.00000000       0.00000000 43345316.00000000
2
Properties=species:S:1:pos:R:3:forces:R:3 energy=4112504.9663235354 pbc="F F F"
Np       0.00000000       0.00000000       0.00000000       0.00000000       0.00000000 -39738232.00000000
Np       0.00000000       0.00000000       0.65030303       0.00000000       0.00000000 39738232.00000000
2
Properties=species:S:1:pos:R:3:forces:R:3 energy=2059032.9663235447 pbc="F F F"
Np       0.00000000       0.00000000       0.00000000       0.00000000       0.00000000 -29190372.00000000
Np       0.00000000       0.00000000       0.70909091       0.00000000       0.00000000 29190372.00000000
2
Properties=species:S:1:pos:R:3:forces:R:3 energy=738847.9663235543 pbc="F F F"
Np       0.00000000       0.00000000       0.00000000       0.00000000       0.00000000 -15731861.00000000
Np       0.00000000       0.00000000       0.76787879       0.00000000       0.00000000 15731861.00000000
2
Properties=species:S:1:pos:R:3:forces:R:3 energy=150334.76319857332 pbc="F F F"
Np       0.00000000       0.00000000       0.00000000       0.00000000       0.00000000 -5183446.50000000
Np       0.00000000       0.00000000       0.82666667       0.00000000       0.00000000 5183446.50000000
2
Properties=species:S:1:pos:R:3:forces:R:3 energy=7014.8969876643405 pbc="F F F"
Np       0.00000000       0.00000000       0.00000000       0.00000000       0.00000000 -621962.12500000
Np       0.00000000       0.00000000       0.88545455       0.00000000       0.00000000  621962.12500000
2
Properties=species:S:1:pos:R:3:forces:R:3 energy=844.096755765593 pbc="F F F"
Np       0.00000000       0.00000000       0.00000000       0.00000000       0.00000000   -7459.75781250
Np       0.00000000       0.00000000       0.94424242       0.00000000       0.00000000    7459.75781250
2
Properties=species:S:1:pos:R:3:forces:R:3 energy=385.7437284725282 pbc="F F F"
Np       0.00000000       0.00000000       0.00000000       0.00000000       0.00000000   -2847.15185547
Np       0.00000000       0.00000000       1.00303030       0.00000000       0.00000000    2847.15185547
2
Properties=species:S:1:pos:R:3:forces:R:3 energy=280.07771291088466 pbc="F F F"
Np       0.00000000       0.00000000       0.00000000       0.00000000       0.00000000   -2090.16210938
Np       0.00000000       0.00000000       1.06181818       0.00000000       0.00000000    2090.16210938
2
Properties=species:S:1:pos:R:3:forces:R:3 energy=165.00521849274773 pbc="F F F"
Np       0.00000000       0.00000000       0.00000000       0.00000000       0.00000000   -1847.33740234
Np       0.00000000       0.00000000       1.12060606       0.00000000       0.00000000    1847.33740234
2
Properties=species:S:1:pos:R:3:forces:R:3 energy=61.647445779640876 pbc="F F F"
Np       0.00000000       0.00000000       0.00000000       0.00000000       0.00000000   -1587.60302734
Np       0.00000000       0.00000000       1.17939394       0.00000000       0.00000000    1587.60302734
2
Properties=species:S:1:pos:R:3:forces:R:3 energy=-20.168609372490863 pbc="F F F"
Np       0.00000000       0.00000000       0.00000000       0.00000000       0.00000000   -1220.73291016
Np       0.00000000       0.00000000       1.23818182       0.00000000       0.00000000    1220.73291016
2
Properties=species:S:1:pos:R:3:forces:R:3 energy=-81.11037401713233 pbc="F F F"
Np       0.00000000       0.00000000       0.00000000       0.00000000       0.00000000    -867.49218750
Np       0.00000000       0.00000000       1.29696970       0.00000000       0.00000000     867.49218750
2
Properties=species:S:1:pos:R:3:forces:R:3 energy=-122.6764672275377 pbc="F F F"
Np       0.00000000       0.00000000       0.00000000       0.00000000       0.00000000    -478.29553223
Np       0.00000000       0.00000000       1.35575758       0.00000000       0.00000000     478.29553223
2
Properties=species:S:1:pos:R:3:forces:R:3 energy=-136.39391993585994 pbc="F F F"
Np       0.00000000       0.00000000       0.00000000       0.00000000       0.00000000     -29.72433090
Np       0.00000000       0.00000000       1.41454545       0.00000000       0.00000000      29.72433090
2
Properties=species:S:1:pos:R:3:forces:R:3 energy=-137.53787099074384 pbc="F F F"
Np       0.00000000       0.00000000       0.00000000       0.00000000       0.00000000      -8.97195435
Np       0.00000000       0.00000000       1.47333333       0.00000000       0.00000000       8.97195435
2
Properties=species:S:1:pos:R:3:forces:R:3 energy=-139.05882086463154 pbc="F F F"
Np       0.00000000       0.00000000       0.00000000       0.00000000       0.00000000     -30.25008583
Np       0.00000000       0.00000000       1.53212121       0.00000000       0.00000000      30.25008583
2
Properties=species:S:1:pos:R:3:forces:R:3 energy=-140.45153578020333 pbc="F F F"
Np       0.00000000       0.00000000       0.00000000       0.00000000       0.00000000     -23.29392624
Np       0.00000000       0.00000000       1.59090909       0.00000000       0.00000000      23.29392624
2
Properties=species:S:1:pos:R:3:forces:R:3 energy=-142.8764466234876 pbc="F F F"
Np       0.00000000       0.00000000       0.00000000       0.00000000       0.00000000     -64.73370361
Np       0.00000000       0.00000000       1.64969697       0.00000000       0.00000000      64.73370361
2
Properties=species:S:1:pos:R:3:forces:R:3 energy=-148.1773186437699 pbc="F F F"
Np       0.00000000       0.00000000       0.00000000       0.00000000       0.00000000    -114.28456116
Np       0.00000000       0.00000000       1.70848485       0.00000000       0.00000000     114.28456116
2
Properties=species:S:1:pos:R:3:forces:R:3 energy=-155.49039754007893 pbc="F F F"
Np       0.00000000       0.00000000       0.00000000       0.00000000       0.00000000    -118.48635101
Np       0.00000000       0.00000000       1.76727273       0.00000000       0.00000000     118.48635101
2
Properties=species:S:1:pos:R:3:forces:R:3 energy=-160.40274994379834 pbc="F F F"
Np       0.00000000       0.00000000       0.00000000       0.00000000       0.00000000     -51.36171341
Np       0.00000000       0.00000000       1.82606061       0.00000000       0.00000000      51.36171341
2
Properties=species:S:1:pos:R:3:forces:R:3 energy=-160.65609030395683 pbc="F F F"
Np       0.00000000       0.00000000       0.00000000       0.00000000       0.00000000      32.88040543
Np       0.00000000       0.00000000       1.88484848       0.00000000       0.00000000     -32.88040543
2
Properties=species:S:1:pos:R:3:forces:R:3 energy=-158.28642933739934 pbc="F F F"
Np       0.00000000       0.00000000       0.00000000       0.00000000       0.00000000      48.17558289
Np       0.00000000       0.00000000       1.94363636       0.00000000       0.00000000     -48.17558289
2
Properties=species:S:1:pos:R:3:forces:R:3 energy=-155.7805376391626 pbc="F F F"
Np       0.00000000       0.00000000       0.00000000       0.00000000       0.00000000      30.49381256
Np       0.00000000       0.00000000       2.00242424       0.00000000       0.00000000     -30.49381256
2
Properties=species:S:1:pos:R:3:forces:R:3 energy=-154.507464249834 pbc="F F F"
Np       0.00000000       0.00000000       0.00000000       0.00000000       0.00000000      34.56248474
Np       0.00000000       0.00000000       2.06121212       0.00000000       0.00000000     -34.56248474
2
Properties=species:S:1:pos:R:3:forces:R:3 energy=-147.81556727936095 pbc="F F F"
Np       0.00000000       0.00000000       0.00000000       0.00000000       0.00000000     162.21997070
Np       0.00000000       0.00000000       2.12000000       0.00000000       0.00000000    -162.21997070
2
Properties=species:S:1:pos:R:3:forces:R:3 energy=-141.21281177445235 pbc="F F F"
Np       0.00000000       0.00000000       0.00000000       0.00000000       0.00000000      49.26860428
Np       0.00000000       0.00000000       2.17878788       0.00000000       0.00000000     -49.26860428
2
Properties=species:S:1:pos:R:3:forces:R:3 energy=-141.70844451059494 pbc="F F F"
Np       0.00000000       0.00000000       0.00000000       0.00000000       0.00000000     -60.09793854
Np       0.00000000       0.00000000       2.23757576       0.00000000       0.00000000      60.09793854
2
Properties=species:S:1:pos:R:3:forces:R:3 energy=-147.47249412996268 pbc="F F F"
Np       0.00000000       0.00000000       0.00000000       0.00000000       0.00000000    -127.51506042
Np       0.00000000       0.00000000       2.29636364       0.00000000       0.00000000     127.51506042
2
Properties=species:S:1:pos:R:3:forces:R:3 energy=-155.29647974057377 pbc="F F F"
Np       0.00000000       0.00000000       0.00000000       0.00000000       0.00000000    -121.51855469
Np       0.00000000       0.00000000       2.35515152       0.00000000       0.00000000     121.51855469
2
Properties=species:S:1:pos:R:3:forces:R:3 energy=-159.8451351594549 pbc="F F F"
Np       0.00000000       0.00000000       0.00000000       0.00000000       0.00000000     -29.67342758
Np       0.00000000       0.00000000       2.41393939       0.00000000       0.00000000      29.67342758
2
Properties=species:S:1:pos:R:3:forces:R:3 energy=-160.04205956958154 pbc="F F F"
Np       0.00000000       0.00000000       0.00000000       0.00000000       0.00000000       9.66549778
Np       0.00000000       0.00000000       2.47272727       0.00000000       0.00000000      -9.66549778
2
Properties=species:S:1:pos:R:3:forces:R:3 energy=-159.57852181899216 pbc="F F F"
Np       0.00000000       0.00000000       0.00000000       0.00000000       0.00000000       3.75425506
Np       0.00000000       0.00000000       2.53151515       0.00000000       0.00000000      -3.75425506
2
Properties=species:S:1:pos:R:3:forces:R:3 energy=-159.58365695399155 pbc="F F F"
Np       0.00000000       0.00000000       0.00000000       0.00000000       0.00000000      -2.65717506
Np       0.00000000       0.00000000       2.59030303       0.00000000       0.00000000       2.65717506
2
Properties=species:S:1:pos:R:3:forces:R:3 energy=-159.75289945936098 pbc="F F F"
Np       0.00000000       0.00000000       0.00000000       0.00000000       0.00000000      -2.31704235
Np       0.00000000       0.00000000       2.64909091       0.00000000       0.00000000       2.31704235
2
Properties=species:S:1:pos:R:3:forces:R:3 energy=-159.81177415508085 pbc="F F F"
Np       0.00000000       0.00000000       0.00000000       0.00000000       0.00000000       0.37843490
Np       0.00000000       0.00000000       2.70787879       0.00000000       0.00000000      -0.37843490
2
Properties=species:S:1:pos:R:3:forces:R:3 energy=-159.72211868299294 pbc="F F F"
Np       0.00000000       0.00000000       0.00000000       0.00000000       0.00000000       2.44156647
Np       0.00000000       0.00000000       2.76666667       0.00000000       0.00000000      -2.44156647
2
Properties=species:S:1:pos:R:3:forces:R:3 energy=-159.55259754319337 pbc="F F F"
Np       0.00000000       0.00000000       0.00000000       0.00000000       0.00000000       3.15582180
Np       0.00000000       0.00000000       2.82545455       0.00000000       0.00000000      -3.15582180
2
Properties=species:S:1:pos:R:3:forces:R:3 energy=-159.35814220841252 pbc="F F F"
Np       0.00000000       0.00000000       0.00000000       0.00000000       0.00000000       3.47494316
Np       0.00000000       0.00000000       2.88424242       0.00000000       0.00000000      -3.47494316
2
Properties=species:S:1:pos:R:3:forces:R:3 energy=-159.14253674746416 pbc="F F F"
Np       0.00000000       0.00000000       0.00000000       0.00000000       0.00000000       3.83884835
Np       0.00000000       0.00000000       2.94303030       0.00000000       0.00000000      -3.83884835
2
Properties=species:S:1:pos:R:3:forces:R:3 energy=-158.9137461183582 pbc="F F F"
Np       0.00000000       0.00000000       0.00000000       0.00000000       0.00000000       3.85950494
Np       0.00000000       0.00000000       3.00181818       0.00000000       0.00000000      -3.85950494
2
Properties=species:S:1:pos:R:3:forces:R:3 energy=-158.6992970466827 pbc="F F F"
Np       0.00000000       0.00000000       0.00000000       0.00000000       0.00000000       3.35516119
Np       0.00000000       0.00000000       3.06060606       0.00000000       0.00000000      -3.35516119
2
Properties=species:S:1:pos:R:3:forces:R:3 energy=-158.52610586528144 pbc="F F F"
Np       0.00000000       0.00000000       0.00000000       0.00000000       0.00000000       2.50659609
Np       0.00000000       0.00000000       3.11939394       0.00000000       0.00000000      -2.50659609
2
Properties=species:S:1:pos:R:3:forces:R:3 energy=-158.40474675024805 pbc="F F F"
Np       0.00000000       0.00000000       0.00000000       0.00000000       0.00000000       1.64651048
Np       0.00000000       0.00000000       3.17818182       0.00000000       0.00000000      -1.64651048
2
Properties=species:S:1:pos:R:3:forces:R:3 energy=-158.32757492788494 pbc="F F F"
Np       0.00000000       0.00000000       0.00000000       0.00000000       0.00000000       1.03170788
Np       0.00000000       0.00000000       3.23696970       0.00000000       0.00000000      -1.03170788
2
Properties=species:S:1:pos:R:3:forces:R:3 energy=-158.27721039669547 pbc="F F F"
Np       0.00000000       0.00000000       0.00000000       0.00000000       0.00000000       0.72977686
Np       0.00000000       0.00000000       3.29575758       0.00000000       0.00000000      -0.72977686
2
Properties=species:S:1:pos:R:3:forces:R:3 energy=-158.23720397932965 pbc="F F F"
Np       0.00000000       0.00000000       0.00000000       0.00000000       0.00000000       0.65932900
Np       0.00000000       0.00000000       3.35454545       0.00000000       0.00000000      -0.65932900
2
Properties=species:S:1:pos:R:3:forces:R:3 energy=-158.19768306503377 pbc="F F F"
Np       0.00000000       0.00000000       0.00000000       0.00000000       0.00000000       0.69294745
Np       0.00000000       0.00000000       3.41333333       0.00000000       0.00000000      -0.69294745
2
Properties=species:S:1:pos:R:3:forces:R:3 energy=-158.15574823362806 pbc="F F F"
Np       0.00000000       0.00000000       0.00000000       0.00000000       0.00000000       0.72774869
Np       0.00000000       0.00000000       3.47212121       0.00000000       0.00000000      -0.72774869
2
Properties=species:S:1:pos:R:3:forces:R:3 energy=-158.1131998099778 pbc="F F F"
Np       0.00000000       0.00000000       0.00000000       0.00000000       0.00000000       0.70832443
Np       0.00000000       0.00000000       3.53090909       0.00000000       0.00000000      -0.70832443
2
Properties=species:S:1:pos:R:3:forces:R:3 energy=-158.07374537571422 pbc="F F F"
Np       0.00000000       0.00000000       0.00000000       0.00000000       0.00000000       0.62457997
Np       0.00000000       0.00000000       3.58969697       0.00000000       0.00000000      -0.62457997
2
Properties=species:S:1:pos:R:3:forces:R:3 energy=-158.04068058218473 pbc="F F F"
Np       0.00000000       0.00000000       0.00000000       0.00000000       0.00000000       0.49461725
Np       0.00000000       0.00000000       3.64848485       0.00000000       0.00000000      -0.49461725
2
Properties=species:S:1:pos:R:3:forces:R:3 energy=-158.01597354708133 pbc="F F F"
Np       0.00000000       0.00000000       0.00000000       0.00000000       0.00000000       0.34509069
Np       0.00000000       0.00000000       3.70727273       0.00000000       0.00000000      -0.34509069
2
Properties=species:S:1:pos:R:3:forces:R:3 energy=-157.99991391496349 pbc="F F F"
Np       0.00000000       0.00000000       0.00000000       0.00000000       0.00000000       0.20545267
Np       0.00000000       0.00000000       3.76606061       0.00000000       0.00000000      -0.20545267
2
Properties=species:S:1:pos:R:3:forces:R:3 energy=-157.99094498840373 pbc="F F F"
Np       0.00000000       0.00000000       0.00000000       0.00000000       0.00000000       0.11003760
Np       0.00000000       0.00000000       3.82484848       0.00000000       0.00000000      -0.11003760
2
Properties=species:S:1:pos:R:3:forces:R:3 energy=-157.98546538907235 pbc="F F F"
Np       0.00000000       0.00000000       0.00000000       0.00000000       0.00000000       0.09108692
Np       0.00000000       0.00000000       3.88363636       0.00000000       0.00000000      -0.09108692
2
Properties=species:S:1:pos:R:3:forces:R:3 energy=-157.97840888221842 pbc="F F F"
Np       0.00000000       0.00000000       0.00000000       0.00000000       0.00000000       0.16440827
Np       0.00000000       0.00000000       3.94242424       0.00000000       0.00000000      -0.16440827
2
Properties=species:S:1:pos:R:3:forces:R:3 energy=-157.96448032591246 pbc="F F F"
Np       0.00000000       0.00000000       0.00000000       0.00000000       0.00000000       0.32199526
Np       0.00000000       0.00000000       4.00121212       0.00000000       0.00000000      -0.32199526
2
Properties=species:S:1:pos:R:3:forces:R:3 energy=-157.9394221695456 pbc="F F F"
Np       0.00000000       0.00000000       0.00000000       0.00000000       0.00000000       0.53709114
Np       0.00000000       0.00000000       4.06000000       0.00000000       0.00000000      -0.53709114
2
Properties=species:S:1:pos:R:3:forces:R:3 energy=-157.90086894601706 pbc="F F F"
Np       0.00000000       0.00000000       0.00000000       0.00000000       0.00000000       0.77544218
Np       0.00000000       0.00000000       4.11878788       0.00000000       0.00000000      -0.77544218
2
Properties=species:S:1:pos:R:3:forces:R:3 energy=-157.84842355617602 pbc="F F F"
Np       0.00000000       0.00000000       0.00000000       0.00000000       0.00000000       1.00497103
Np       0.00000000       0.00000000       4.17757576       0.00000000       0.00000000      -1.00497103
2
Properties=species:S:1:pos:R:3:forces:R:3 energy=-157.78336734866159 pbc="F F F"
Np       0.00000000       0.00000000       0.00000000       0.00000000       0.00000000       1.20118403
Np       0.00000000       0.00000000       4.23636364       0.00000000       0.00000000      -1.20118403
2
Properties=species:S:1:pos:R:3:forces:R:3 energy=-157.70814134008168 pbc="F F F"
Np       0.00000000       0.00000000       0.00000000       0.00000000       0.00000000       1.34919465
Np       0.00000000       0.00000000       4.29515152       0.00000000       0.00000000      -1.34919465
2
Properties=species:S:1:pos:R:3:forces:R:3 energy=-157.62579688593536 pbc="F F F"
Np       0.00000000       0.00000000       0.00000000       0.00000000       0.00000000       1.44352400
Np       0.00000000       0.00000000       4.35393939       0.00000000       0.00000000      -1.44352400
2
Properties=species:S:1:pos:R:3:forces:R:3 energy=-157.53943112442454 pbc="F F F"
Np       0.00000000       0.00000000       0.00000000       0.00000000       0.00000000       1.48630476
Np       0.00000000       0.00000000       4.41272727       0.00000000       0.00000000      -1.48630476
2
Properties=species:S:1:pos:R:3:forces:R:3 energy=-157.45191228340482 pbc="F F F"
Np       0.00000000       0.00000000       0.00000000       0.00000000       0.00000000       1.48452544
Np       0.00000000       0.00000000       4.47151515       0.00000000       0.00000000      -1.48452544
2
Properties=species:S:1:pos:R:3:forces:R:3 energy=-157.3655898109106 pbc="F F F"
Np       0.00000000       0.00000000       0.00000000       0.00000000       0.00000000       1.44711244
Np       0.00000000       0.00000000       4.53030303       0.00000000       0.00000000      -1.44711244
2
Properties=species:S:1:pos:R:3:forces:R:3 energy=-157.28229434347682 pbc="F F F"
Np       0.00000000       0.00000000       0.00000000       0.00000000       0.00000000       1.38267934
Np       0.00000000       0.00000000       4.58909091       0.00000000       0.00000000      -1.38267934
2
Properties=species:S:1:pos:R:3:forces:R:3 energy=-157.2034140159235 pbc="F F F"
Np       0.00000000       0.00000000       0.00000000       0.00000000       0.00000000       1.29831970
Np       0.00000000       0.00000000       4.64787879       0.00000000       0.00000000      -1.29831970
2
Properties=species:S:1:pos:R:3:forces:R:3 energy=-157.12992498526938 pbc="F F F"
Np       0.00000000       0.00000000       0.00000000       0.00000000       0.00000000       1.19956064
Np       0.00000000       0.00000000       4.70666667       0.00000000       0.00000000      -1.19956064
2
Properties=species:S:1:pos:R:3:forces:R:3 energy=-157.0625592615726 pbc="F F F"
Np       0.00000000       0.00000000       0.00000000       0.00000000       0.00000000       1.09131181
Np       0.00000000       0.00000000       4.76545455       0.00000000       0.00000000      -1.09131181
2
Properties=species:S:1:pos:R:3:forces:R:3 energy=-157.00169792174978 pbc="F F F"
Np       0.00000000       0.00000000       0.00000000       0.00000000       0.00000000       0.97885424
Np       0.00000000       0.00000000       4.82424242       0.00000000       0.00000000      -0.97885424
2
Properties=species:S:1:pos:R:3:forces:R:3 energy=-156.9474321383966 pbc="F F F"
Np       0.00000000       0.00000000       0.00000000       0.00000000       0.00000000       0.86832762
Np       0.00000000       0.00000000       4.88303030       0.00000000       0.00000000      -0.86832762
2
Properties=species:S:1:pos:R:3:forces:R:3 energy=-156.89944111581107 pbc="F F F"
Np       0.00000000       0.00000000       0.00000000       0.00000000       0.00000000       0.76613444
Np       0.00000000       0.00000000       4.94181818       0.00000000       0.00000000      -0.76613444
2
Properties=species:S:1:pos:R:3:forces:R:3 energy=-156.8570836363921 pbc="F F F"
Np       0.00000000       0.00000000       0.00000000       0.00000000       0.00000000       0.67766654
Np       0.00000000       0.00000000       5.00060606       0.00000000       0.00000000      -0.67766654
2
Properties=species:S:1:pos:R:3:forces:R:3 energy=-156.81942859722466 pbc="F F F"
Np       0.00000000       0.00000000       0.00000000       0.00000000       0.00000000       0.60586828
Np       0.00000000       0.00000000       5.05939394       0.00000000       0.00000000      -0.60586828
2
Properties=species:S:1:pos:R:3:forces:R:3 energy=-156.78551440949383 pbc="F F F"
Np       0.00000000       0.00000000       0.00000000       0.00000000       0.00000000       0.55046457
Np       0.00000000       0.00000000       5.11818182       0.00000000       0.00000000      -0.55046457
2
Properties=species:S:1:pos:R:3:forces:R:3 energy=-156.75445579733693 pbc="F F F"
Np       0.00000000       0.00000000       0.00000000       0.00000000       0.00000000       0.50805199
Np       0.00000000       0.00000000       5.17696970       0.00000000       0.00000000      -0.50805199
2
Properties=species:S:1:pos:R:3:forces:R:3 energy=-156.72564219694738 pbc="F F F"
Np       0.00000000       0.00000000       0.00000000       0.00000000       0.00000000       0.47262755
Np       0.00000000       0.00000000       5.23575758       0.00000000       0.00000000      -0.47262755
2
Properties=species:S:1:pos:R:3:forces:R:3 energy=-156.6989055810796 pbc="F F F"
Np       0.00000000       0.00000000       0.00000000       0.00000000       0.00000000       0.43672696
Np       0.00000000       0.00000000       5.29454545       0.00000000       0.00000000      -0.43672696
2
Properties=species:S:1:pos:R:3:forces:R:3 energy=-156.67441367920387 pbc="F F F"
Np       0.00000000       0.00000000       0.00000000       0.00000000       0.00000000       0.39573172
Np       0.00000000       0.00000000       5.35333333       0.00000000       0.00000000      -0.39573172
2
Properties=species:S:1:pos:R:3:forces:R:3 energy=-156.65231898100836 pbc="F F F"
Np       0.00000000       0.00000000       0.00000000       0.00000000       0.00000000       0.35819343
Np       0.00000000       0.00000000       5.41212121       0.00000000       0.00000000      -0.35819343
2
Properties=species:S:1:pos:R:3:forces:R:3 energy=-156.6318280294618 pbc="F F F"
Np       0.00000000       0.00000000       0.00000000       0.00000000       0.00000000       0.34317508
Np       0.00000000       0.00000000       5.47090909       0.00000000       0.00000000      -0.34317508
2
Properties=species:S:1:pos:R:3:forces:R:3 energy=-156.6116743640789 pbc="F F F"
Np       0.00000000       0.00000000       0.00000000       0.00000000       0.00000000       0.34154135
Np       0.00000000       0.00000000       5.52969697       0.00000000       0.00000000      -0.34154135
2
Properties=species:S:1:pos:R:3:forces:R:3 energy=-156.59211749197974 pbc="F F F"
Np       0.00000000       0.00000000       0.00000000       0.00000000       0.00000000       0.31915721
Np       0.00000000       0.00000000       5.58848485       0.00000000       0.00000000      -0.31915721
2
Properties=species:S:1:pos:R:3:forces:R:3 energy=-156.57451561962102 pbc="F F F"
Np       0.00000000       0.00000000       0.00000000       0.00000000       0.00000000       0.27989343
Np       0.00000000       0.00000000       5.64727273       0.00000000       0.00000000      -0.27989343
2
Properties=species:S:1:pos:R:3:forces:R:3 energy=-156.55874690477353 pbc="F F F"
Np       0.00000000       0.00000000       0.00000000       0.00000000       0.00000000       0.26333010
Np       0.00000000       0.00000000       5.70606061       0.00000000       0.00000000      -0.26333010
2
Properties=species:S:1:pos:R:3:forces:R:3 energy=-156.54281275018096 pbc="F F F"
Np       0.00000000       0.00000000       0.00000000       0.00000000       0.00000000       0.27929264
Np       0.00000000       0.00000000       5.76484848       0.00000000       0.00000000      -0.27929264
2
Properties=species:S:1:pos:R:3:forces:R:3 energy=-156.526683032659 pbc="F F F"
Np       0.00000000       0.00000000       0.00000000       0.00000000       0.00000000       0.25740632
Np       0.00000000       0.00000000       5.82363636       0.00000000       0.00000000      -0.25740632
2
Properties=species:S:1:pos:R:3:forces:R:3 energy=-156.51417289138453 pbc="F F F"
Np       0.00000000       0.00000000       0.00000000       0.00000000       0.00000000       0.15964498
Np       0.00000000       0.00000000       5.88242424       0.00000000       0.00000000      -0.15964498
2
Properties=species:S:1:pos:R:3:forces:R:3 energy=-156.50809047098744 pbc="F F F"
Np       0.00000000       0.00000000       0.00000000       0.00000000       0.00000000       0.05180328
Np       0.00000000       0.00000000       5.94121212       0.00000000       0.00000000      -0.05180328
2
Properties=species:S:1:pos:R:3:forces:R:3 energy=-156.50677316059435 pbc="F F F"
Np       0.00000000       0.00000000       0.00000000       0.00000000       0.00000000       0.00770207
Np       0.00000000       0.00000000       6.00000000       0.00000000       0.00000000      -0.00770207
