2
Properties=species:S:1:pos:R:3:forces:R:3 energy=4335438.489318572 pbc="F F F"
Os       0.00000000       0.00000000       0.00000000       0.00000000       0.00000000 -1490145.00000000
Os       0.00000000       0.00000000       0.18000000       0.00000000       0.00000000 1490145.00000000
2
Properties=species:S:1:pos:R:3:forces:R:3 energy=4200505.989318572 pbc="F F F"
Os       0.00000000       0.00000000       0.00000000       0.00000000       0.00000000 -3361837.75000000
Os       0.00000000       0.00000000       0.23878788       0.00000000       0.00000000 3361837.75000000
2
Properties=species:S:1:pos:R:3:forces:R:3 energy=3908934.989318572 pbc="F F F"
Os       0.00000000       0.00000000       0.00000000       0.00000000       0.00000000 -6814912.00000000
Os       0.00000000       0.00000000       0.29757576       0.00000000       0.00000000 6814912.00000000
2
Properties=species:S:1:pos:R:3:forces:R:3 energy=3375092.739318572 pbc="F F F"
Os       0.00000000       0.00000000       0.00000000       0.00000000       0.00000000 -11459422.00000000
Os       0.00000000       0.00000000       0.35636364       0.00000000       0.00000000 11459422.00000000
2
Properties=species:S:1:pos:R:3:forces:R:3 energy=2567493.7393185725 pbc="F F F"
Os       0.00000000       0.00000000       0.00000000       0.00000000       0.00000000 -15752486.00000000
Os       0.00000000       0.00000000       0.41515152       0.00000000       0.00000000 15752486.00000000
2
Properties=species:S:1:pos:R:3:forces:R:3 energy=1582764.4893185725 pbc="F F F"
Os       0.00000000       0.00000000       0.00000000       0.00000000       0.00000000 -16914926.00000000
Os       0.00000000       0.00000000       0.47393939       0.00000000       0.00000000 16914926.00000000
2
Properties=species:S:1:pos:R:3:forces:R:3 energy=687440.3643185742 pbc="F F F"
Os       0.00000000       0.00000000       0.00000000       0.00000000       0.00000000 -12664269.00000000
Os       0.00000000       0.00000000       0.53272727       0.00000000       0.00000000 12664269.00000000
2
Properties=species:S:1:pos:R:3:forces:R:3 energy=156565.94244357652 pbc="F F F"
Os       0.00000000       0.00000000       0.00000000       0.00000000       0.00000000 -5312132.50000000
Os       0.00000000       0.00000000       0.59151515       0.00000000       0.00000000 5312132.50000000
2
Properties=species:S:1:pos:R:3:forces:R:3 energy=6399.130920142974 pbc="F F F"
Os       0.00000000       0.00000000       0.00000000       0.00000000       0.00000000 -634102.87500000
Os       0.00000000       0.00000000       0.65030303       0.00000000       0.00000000  634102.87500000
2
Properties=species:S:1:pos:R:3:forces:R:3 energy=32.09996006630217 pbc="F F F"
Os       0.00000000       0.00000000       0.00000000       0.00000000       0.00000000   12839.94531250
Os       0.00000000       0.00000000       0.70909091       0.00000000       0.00000000  -12839.94531250
2
Properties=species:S:1:pos:R:3:forces:R:3 energy=199.04627965588375 pbc="F F F"
Os       0.00000000       0.00000000       0.00000000       0.00000000       0.00000000    -464.71582031
Os       0.00000000       0.00000000       0.76787879       0.00000000       0.00000000     464.71582031
2
Properties=species:S:1:pos:R:3:forces:R:3 energy=169.74330115451397 pbc="F F F"
Os       0.00000000       0.00000000       0.00000000       0.00000000       0.00000000    -379.66687012
Os       0.00000000       0.00000000       0.82666667       0.00000000       0.00000000     379.66687012
2
Properties=species:S:1:pos:R:3:forces:R:3 energy=151.64607216961465 pbc="F F F"
Os       0.00000000       0.00000000       0.00000000       0.00000000       0.00000000    -280.41491699
Os       0.00000000       0.00000000       0.88545455       0.00000000       0.00000000     280.41491699
2
Properties=species:S:1:pos:R:3:forces:R:3 energy=133.95538311041904 pbc="F F F"
Os       0.00000000       0.00000000       0.00000000       0.00000000       0.00000000    -410.40383911
Os       0.00000000       0.00000000       0.94424242       0.00000000       0.00000000     410.40383911
2
Properties=species:S:1:pos:R:3:forces:R:3 energy=103.76788314764093 pbc="F F F"
Os       0.00000000       0.00000000       0.00000000       0.00000000       0.00000000    -570.48553467
Os       0.00000000       0.00000000       1.00303030       0.00000000       0.00000000     570.48553467
2
Properties=species:S:1:pos:R:3:forces:R:3 energy=67.02404774910734 pbc="F F F"
Os       0.00000000       0.00000000       0.00000000       0.00000000       0.00000000    -630.12103271
Os       0.00000000       0.00000000       1.06181818       0.00000000       0.00000000     630.12103271
2
Properties=species:S:1:pos:R:3:forces:R:3 energy=30.25198360823114 pbc="F F F"
Os       0.00000000       0.00000000       0.00000000       0.00000000       0.00000000    -632.31933594
Os       0.00000000       0.00000000       1.12060606       0.00000000       0.00000000     632.31933594
2
Properties=species:S:1:pos:R:3:forces:R:3 energy=-4.877204842251406 pbc="F F F"
Os       0.00000000       0.00000000       0.00000000       0.00000000       0.00000000    -561.48248291
Os       0.00000000       0.00000000       1.17939394       0.00000000       0.00000000     561.48248291
2
Properties=species:S:1:pos:R:3:forces:R:3 energy=-35.33939726519411 pbc="F F F"
Os       0.00000000       0.00000000       0.00000000       0.00000000       0.00000000    -451.14724731
Os       0.00000000       0.00000000       1.23818182       0.00000000       0.00000000     451.14724731
2
Properties=species:S:1:pos:R:3:forces:R:3 energy=-56.24636428414414 pbc="F F F"
Os       0.00000000       0.00000000       0.00000000       0.00000000       0.00000000    -269.03411865
Os       0.00000000       0.00000000       1.29696970       0.00000000       0.00000000     269.03411865
2
Properties=species:S:1:pos:R:3:forces:R:3 energy=-66.06191967608804 pbc="F F F"
Os       0.00000000       0.00000000       0.00000000       0.00000000       0.00000000     -72.57483673
Os       0.00000000       0.00000000       1.35575758       0.00000000       0.00000000      72.57483673
2
Properties=species:S:1:pos:R:3:forces:R:3 energy=-68.61402821582111 pbc="F F F"
Os       0.00000000       0.00000000       0.00000000       0.00000000       0.00000000     -38.31147766
Os       0.00000000       0.00000000       1.41454545       0.00000000       0.00000000      38.31147766
2
Properties=species:S:1:pos:R:3:forces:R:3 energy=-71.46440024992198 pbc="F F F"
Os       0.00000000       0.00000000       0.00000000       0.00000000       0.00000000     -55.62495041
Os       0.00000000       0.00000000       1.47333333       0.00000000       0.00000000      55.62495041
2
Properties=species:S:1:pos:R:3:forces:R:3 energy=-74.91274891157235 pbc="F F F"
Os       0.00000000       0.00000000       0.00000000       0.00000000       0.00000000     -63.07502365
Os       0.00000000       0.00000000       1.53212121       0.00000000       0.00000000      63.07502365
2
Properties=species:S:1:pos:R:3:forces:R:3 energy=-78.9884092013621 pbc="F F F"
Os       0.00000000       0.00000000       0.00000000       0.00000000       0.00000000     -74.10046387
Os       0.00000000       0.00000000       1.59090909       0.00000000       0.00000000      74.10046387
2
Properties=species:S:1:pos:R:3:forces:R:3 energy=-83.23780598659779 pbc="F F F"
Os       0.00000000       0.00000000       0.00000000       0.00000000       0.00000000     -67.30032349
Os       0.00000000       0.00000000       1.64969697       0.00000000       0.00000000      67.30032349
2
Properties=species:S:1:pos:R:3:forces:R:3 energy=-86.706349413234 pbc="F F F"
Os       0.00000000       0.00000000       0.00000000       0.00000000       0.00000000     -50.17085266
Os       0.00000000       0.00000000       1.70848485       0.00000000       0.00000000      50.17085266
2
Properties=species:S:1:pos:R:3:forces:R:3 energy=-89.14155230182135 pbc="F F F"
Os       0.00000000       0.00000000       0.00000000       0.00000000       0.00000000     -33.15841293
Os       0.00000000       0.00000000       1.76727273       0.00000000       0.00000000      33.15841293
2
Properties=species:S:1:pos:R:3:forces:R:3 energy=-90.6969409941502 pbc="F F F"
Os       0.00000000       0.00000000       0.00000000       0.00000000       0.00000000     -20.72019958
Os       0.00000000       0.00000000       1.82606061       0.00000000       0.00000000      20.72019958
2
Properties=species:S:1:pos:R:3:forces:R:3 energy=-91.68933379959317 pbc="F F F"
Os       0.00000000       0.00000000       0.00000000       0.00000000       0.00000000     -13.85922337
Os       0.00000000       0.00000000       1.88484848       0.00000000       0.00000000      13.85922337
2
Properties=species:S:1:pos:R:3:forces:R:3 energy=-92.39502177405586 pbc="F F F"
Os       0.00000000       0.00000000       0.00000000       0.00000000       0.00000000     -10.49084568
Os       0.00000000       0.00000000       1.94363636       0.00000000       0.00000000      10.49084568
2
Properties=species:S:1:pos:R:3:forces:R:3 energy=-92.94207988110853 pbc="F F F"
Os       0.00000000       0.00000000       0.00000000       0.00000000       0.00000000      -8.16780186
Os       0.00000000       0.00000000       2.00242424       0.00000000       0.00000000       8.16780186
2
Properties=species:S:1:pos:R:3:forces:R:3 energy=-93.35470151527294 pbc="F F F"
Os       0.00000000       0.00000000       0.00000000       0.00000000       0.00000000      -5.82758951
Os       0.00000000       0.00000000       2.06121212       0.00000000       0.00000000       5.82758951
2
Properties=species:S:1:pos:R:3:forces:R:3 energy=-93.62077221728025 pbc="F F F"
Os       0.00000000       0.00000000       0.00000000       0.00000000       0.00000000      -3.18776512
Os       0.00000000       0.00000000       2.12000000       0.00000000       0.00000000       3.18776512
2
Properties=species:S:1:pos:R:3:forces:R:3 energy=-93.73267192153034 pbc="F F F"
Os       0.00000000       0.00000000       0.00000000       0.00000000       0.00000000      -0.71874201
Os       0.00000000       0.00000000       2.17878788       0.00000000       0.00000000       0.71874201
2
Properties=species:S:1:pos:R:3:forces:R:3 energy=-93.72288936574141 pbc="F F F"
Os       0.00000000       0.00000000       0.00000000       0.00000000       0.00000000       0.88097513
Os       0.00000000       0.00000000       2.23757576       0.00000000       0.00000000      -0.88097513
2
Properties=species:S:1:pos:R:3:forces:R:3 energy=-93.64654368977652 pbc="F F F"
Os       0.00000000       0.00000000       0.00000000       0.00000000       0.00000000       1.60943162
Os       0.00000000       0.00000000       2.29636364       0.00000000       0.00000000      -1.60943162
2
Properties=species:S:1:pos:R:3:forces:R:3 energy=-93.54018654385578 pbc="F F F"
Os       0.00000000       0.00000000       0.00000000       0.00000000       0.00000000       2.00536919
Os       0.00000000       0.00000000       2.35515152       0.00000000       0.00000000      -2.00536919
2
Properties=species:S:1:pos:R:3:forces:R:3 energy=-93.40574344059908 pbc="F F F"
Os       0.00000000       0.00000000       0.00000000       0.00000000       0.00000000       2.64089799
Os       0.00000000       0.00000000       2.41393939       0.00000000       0.00000000      -2.64089799
2
Properties=species:S:1:pos:R:3:forces:R:3 energy=-93.22298199451663 pbc="F F F"
Os       0.00000000       0.00000000       0.00000000       0.00000000       0.00000000       3.59149432
Os       0.00000000       0.00000000       2.47272727       0.00000000       0.00000000      -3.59149432
2
Properties=species:S:1:pos:R:3:forces:R:3 energy=-92.98742471020013 pbc="F F F"
Os       0.00000000       0.00000000       0.00000000       0.00000000       0.00000000       4.35442066
Os       0.00000000       0.00000000       2.53151515       0.00000000       0.00000000      -4.35442066
2
Properties=species:S:1:pos:R:3:forces:R:3 energy=-92.71978049708248 pbc="F F F"
Os       0.00000000       0.00000000       0.00000000       0.00000000       0.00000000       4.68430519
Os       0.00000000       0.00000000       2.59030303       0.00000000       0.00000000      -4.68430519
2
Properties=species:S:1:pos:R:3:forces:R:3 energy=-92.44249519062346 pbc="F F F"
Os       0.00000000       0.00000000       0.00000000       0.00000000       0.00000000       4.71412659
Os       0.00000000       0.00000000       2.64909091       0.00000000       0.00000000      -4.71412659
2
Properties=species:S:1:pos:R:3:forces:R:3 energy=-92.16936711467602 pbc="F F F"
Os       0.00000000       0.00000000       0.00000000       0.00000000       0.00000000       4.53927326
Os       0.00000000       0.00000000       2.70787879       0.00000000       0.00000000      -4.53927326
2
Properties=species:S:1:pos:R:3:forces:R:3 energy=-91.9142679255465 pbc="F F F"
Os       0.00000000       0.00000000       0.00000000       0.00000000       0.00000000       4.08994436
Os       0.00000000       0.00000000       2.76666667       0.00000000       0.00000000      -4.08994436
2
Properties=species:S:1:pos:R:3:forces:R:3 energy=-91.69337078282751 pbc="F F F"
Os       0.00000000       0.00000000       0.00000000       0.00000000       0.00000000       3.39592195
Os       0.00000000       0.00000000       2.82545455       0.00000000       0.00000000      -3.39592195
2
Properties=species:S:1:pos:R:3:forces:R:3 energy=-91.51685758481541 pbc="F F F"
Os       0.00000000       0.00000000       0.00000000       0.00000000       0.00000000       2.60496402
Os       0.00000000       0.00000000       2.88424242       0.00000000       0.00000000      -2.60496402
2
Properties=species:S:1:pos:R:3:forces:R:3 energy=-91.38637818842643 pbc="F F F"
Os       0.00000000       0.00000000       0.00000000       0.00000000       0.00000000       1.85042572
Os       0.00000000       0.00000000       2.94303030       0.00000000       0.00000000      -1.85042572
2
Properties=species:S:1:pos:R:3:forces:R:3 energy=-91.29614702763784 pbc="F F F"
Os       0.00000000       0.00000000       0.00000000       0.00000000       0.00000000       1.25543964
Os       0.00000000       0.00000000       3.00181818       0.00000000       0.00000000      -1.25543964
2
Properties=species:S:1:pos:R:3:forces:R:3 energy=-91.23385178961759 pbc="F F F"
Os       0.00000000       0.00000000       0.00000000       0.00000000       0.00000000       0.90765595
Os       0.00000000       0.00000000       3.06060606       0.00000000       0.00000000      -0.90765595
2
Properties=species:S:1:pos:R:3:forces:R:3 energy=-91.18474658906106 pbc="F F F"
Os       0.00000000       0.00000000       0.00000000       0.00000000       0.00000000       0.79584414
Os       0.00000000       0.00000000       3.11939394       0.00000000       0.00000000      -0.79584414
2
Properties=species:S:1:pos:R:3:forces:R:3 energy=-91.13746334837464 pbc="F F F"
Os       0.00000000       0.00000000       0.00000000       0.00000000       0.00000000       0.82862109
Os       0.00000000       0.00000000       3.17818182       0.00000000       0.00000000      -0.82862109
2
Properties=species:S:1:pos:R:3:forces:R:3 energy=-91.08608636478579 pbc="F F F"
Os       0.00000000       0.00000000       0.00000000       0.00000000       0.00000000       0.92671108
Os       0.00000000       0.00000000       3.23696970       0.00000000       0.00000000      -0.92671108
2
Properties=species:S:1:pos:R:3:forces:R:3 energy=-91.02764145105965 pbc="F F F"
Os       0.00000000       0.00000000       0.00000000       0.00000000       0.00000000       1.06904161
Os       0.00000000       0.00000000       3.29575758       0.00000000       0.00000000      -1.06904161
2
Properties=species:S:1:pos:R:3:forces:R:3 energy=-90.95957301820577 pbc="F F F"
Os       0.00000000       0.00000000       0.00000000       0.00000000       0.00000000       1.25210309
Os       0.00000000       0.00000000       3.35454545       0.00000000       0.00000000      -1.25210309
2
Properties=species:S:1:pos:R:3:forces:R:3 energy=-90.8801796447194 pbc="F F F"
Os       0.00000000       0.00000000       0.00000000       0.00000000       0.00000000       1.44710350
Os       0.00000000       0.00000000       3.41333333       0.00000000       0.00000000      -1.44710350
2
Properties=species:S:1:pos:R:3:forces:R:3 energy=-90.79016307967413 pbc="F F F"
Os       0.00000000       0.00000000       0.00000000       0.00000000       0.00000000       1.60495532
Os       0.00000000       0.00000000       3.47212121       0.00000000       0.00000000      -1.60495532
2
Properties=species:S:1:pos:R:3:forces:R:3 energy=-90.69309367696998 pbc="F F F"
Os       0.00000000       0.00000000       0.00000000       0.00000000       0.00000000       1.68082750
Os       0.00000000       0.00000000       3.53090909       0.00000000       0.00000000      -1.68082750
2
Properties=species:S:1:pos:R:3:forces:R:3 energy=-90.59465512012082 pbc="F F F"
Os       0.00000000       0.00000000       0.00000000       0.00000000       0.00000000       1.64949048
Os       0.00000000       0.00000000       3.58969697       0.00000000       0.00000000      -1.64949048
2
Properties=species:S:1:pos:R:3:forces:R:3 energy=-90.50128639002783 pbc="F F F"
Os       0.00000000       0.00000000       0.00000000       0.00000000       0.00000000       1.51000845
Os       0.00000000       0.00000000       3.64848485       0.00000000       0.00000000      -1.51000845
2
Properties=species:S:1:pos:R:3:forces:R:3 energy=-90.41880847871559 pbc="F F F"
Os       0.00000000       0.00000000       0.00000000       0.00000000       0.00000000       1.28447950
Os       0.00000000       0.00000000       3.70727273       0.00000000       0.00000000      -1.28447950
2
Properties=species:S:1:pos:R:3:forces:R:3 energy=-90.35121131560166 pbc="F F F"
Os       0.00000000       0.00000000       0.00000000       0.00000000       0.00000000       1.01093245
Os       0.00000000       0.00000000       3.76606061       0.00000000       0.00000000      -1.01093245
2
Properties=species:S:1:pos:R:3:forces:R:3 energy=-90.30005867947482 pbc="F F F"
Os       0.00000000       0.00000000       0.00000000       0.00000000       0.00000000       0.73160654
Os       0.00000000       0.00000000       3.82484848       0.00000000       0.00000000      -0.73160654
2
Properties=species:S:1:pos:R:3:forces:R:3 energy=-90.26461026722365 pbc="F F F"
Os       0.00000000       0.00000000       0.00000000       0.00000000       0.00000000       0.48152316
Os       0.00000000       0.00000000       3.88363636       0.00000000       0.00000000      -0.48152316
2
Properties=species:S:1:pos:R:3:forces:R:3 energy=-90.24243205015084 pbc="F F F"
Os       0.00000000       0.00000000       0.00000000       0.00000000       0.00000000       0.28246689
Os       0.00000000       0.00000000       3.94242424       0.00000000       0.00000000      -0.28246689
2
Properties=species:S:1:pos:R:3:forces:R:3 energy=-90.2302278732253 pbc="F F F"
Os       0.00000000       0.00000000       0.00000000       0.00000000       0.00000000       0.14283246
Os       0.00000000       0.00000000       4.00121212       0.00000000       0.00000000      -0.14283246
2
Properties=species:S:1:pos:R:3:forces:R:3 energy=-90.22450321082246 pbc="F F F"
Os       0.00000000       0.00000000       0.00000000       0.00000000       0.00000000       0.06121391
Os       0.00000000       0.00000000       4.06000000       0.00000000       0.00000000      -0.06121391
2
Properties=species:S:1:pos:R:3:forces:R:3 energy=-90.22203058513333 pbc="F F F"
Os       0.00000000       0.00000000       0.00000000       0.00000000       0.00000000       0.03061114
Os       0.00000000       0.00000000       4.11878788       0.00000000       0.00000000      -0.03061114
2
Properties=species:S:1:pos:R:3:forces:R:3 energy=-90.2200860552201 pbc="F F F"
Os       0.00000000       0.00000000       0.00000000       0.00000000       0.00000000       0.04157173
Os       0.00000000       0.00000000       4.17757576       0.00000000       0.00000000      -0.04157173
2
Properties=species:S:1:pos:R:3:forces:R:3 energy=-90.2165255220489 pbc="F F F"
Os       0.00000000       0.00000000       0.00000000       0.00000000       0.00000000       0.08392171
Os       0.00000000       0.00000000       4.23636364       0.00000000       0.00000000      -0.08392171
2
Properties=species:S:1:pos:R:3:forces:R:3 energy=-90.20979999203064 pbc="F F F"
Os       0.00000000       0.00000000       0.00000000       0.00000000       0.00000000       0.14753908
Os       0.00000000       0.00000000       4.29515152       0.00000000       0.00000000      -0.14753908
2
Properties=species:S:1:pos:R:3:forces:R:3 energy=-90.19895557226917 pbc="F F F"
Os       0.00000000       0.00000000       0.00000000       0.00000000       0.00000000       0.22269967
Os       0.00000000       0.00000000       4.35393939       0.00000000       0.00000000      -0.22269967
2
Properties=species:S:1:pos:R:3:forces:R:3 energy=-90.18357244807639 pbc="F F F"
Os       0.00000000       0.00000000       0.00000000       0.00000000       0.00000000       0.30034950
Os       0.00000000       0.00000000       4.41272727       0.00000000       0.00000000      -0.30034950
2
Properties=species:S:1:pos:R:3:forces:R:3 energy=-90.16374961943143 pbc="F F F"
Os       0.00000000       0.00000000       0.00000000       0.00000000       0.00000000       0.37237358
Os       0.00000000       0.00000000       4.47151515       0.00000000       0.00000000      -0.37237358
2
Properties=species:S:1:pos:R:3:forces:R:3 energy=-90.14003625385288 pbc="F F F"
Os       0.00000000       0.00000000       0.00000000       0.00000000       0.00000000       0.43188697
Os       0.00000000       0.00000000       4.53030303       0.00000000       0.00000000      -0.43188697
2
Properties=species:S:1:pos:R:3:forces:R:3 energy=-90.11332485428458 pbc="F F F"
Os       0.00000000       0.00000000       0.00000000       0.00000000       0.00000000       0.47351950
Os       0.00000000       0.00000000       4.58909091       0.00000000       0.00000000      -0.47351950
2
Properties=species:S:1:pos:R:3:forces:R:3 energy=-90.08478261671948 pbc="F F F"
Os       0.00000000       0.00000000       0.00000000       0.00000000       0.00000000       0.49371347
Os       0.00000000       0.00000000       4.64787879       0.00000000       0.00000000      -0.49371347
2
Properties=species:S:1:pos:R:3:forces:R:3 energy=-90.05572173366052 pbc="F F F"
Os       0.00000000       0.00000000       0.00000000       0.00000000       0.00000000       0.49091420
Os       0.00000000       0.00000000       4.70666667       0.00000000       0.00000000      -0.49091420
2
Properties=species:S:1:pos:R:3:forces:R:3 energy=-90.02750020328017 pbc="F F F"
Os       0.00000000       0.00000000       0.00000000       0.00000000       0.00000000       0.46572956
Os       0.00000000       0.00000000       4.76545455       0.00000000       0.00000000      -0.46572956
2
Properties=species:S:1:pos:R:3:forces:R:3 energy=-90.00135399778792 pbc="F F F"
Os       0.00000000       0.00000000       0.00000000       0.00000000       0.00000000       0.42084530
Os       0.00000000       0.00000000       4.82424242       0.00000000       0.00000000      -0.42084530
2
Properties=species:S:1:pos:R:3:forces:R:3 energy=-89.97832076790104 pbc="F F F"
Os       0.00000000       0.00000000       0.00000000       0.00000000       0.00000000       0.36079255
Os       0.00000000       0.00000000       4.88303030       0.00000000       0.00000000      -0.36079255
2
Properties=species:S:1:pos:R:3:forces:R:3 energy=-89.95911776936425 pbc="F F F"
Os       0.00000000       0.00000000       0.00000000       0.00000000       0.00000000       0.29132023
Os       0.00000000       0.00000000       4.94181818       0.00000000       0.00000000      -0.29132023
2
Properties=species:S:1:pos:R:3:forces:R:3 energy=-89.94412661920786 pbc="F F F"
Os       0.00000000       0.00000000       0.00000000       0.00000000       0.00000000       0.21869743
Os       0.00000000       0.00000000       5.00060606       0.00000000       0.00000000      -0.21869743
2
Properties=species:S:1:pos:R:3:forces:R:3 energy=-89.93334751225292 pbc="F F F"
Os       0.00000000       0.00000000       0.00000000       0.00000000       0.00000000       0.14882992
Os       0.00000000       0.00000000       5.05939394       0.00000000       0.00000000      -0.14882992
2
Properties=species:S:1:pos:R:3:forces:R:3 energy=-89.92647551188877 pbc="F F F"
Os       0.00000000       0.00000000       0.00000000       0.00000000       0.00000000       0.08676177
Os       0.00000000       0.00000000       5.11818182       0.00000000       0.00000000      -0.08676177
2
Properties=species:S:1:pos:R:3:forces:R:3 energy=-89.92291581836551 pbc="F F F"
Os       0.00000000       0.00000000       0.00000000       0.00000000       0.00000000       0.03664180
Os       0.00000000       0.00000000       5.17696970       0.00000000       0.00000000      -0.03664180
2
Properties=species:S:1:pos:R:3:forces:R:3 energy=-89.92186005719566 pbc="F F F"
Os       0.00000000       0.00000000       0.00000000       0.00000000       0.00000000       0.00193979
Os       0.00000000       0.00000000       5.23575758       0.00000000       0.00000000      -0.00193979
2
Properties=species:S:1:pos:R:3:forces:R:3 energy=-89.92233968729175 pbc="F F F"
Os       0.00000000       0.00000000       0.00000000       0.00000000       0.00000000      -0.01506927
Os       0.00000000       0.00000000       5.29454545       0.00000000       0.00000000       0.01506927
2
Properties=species:S:1:pos:R:3:forces:R:3 energy=-89.92331754894893 pbc="F F F"
Os       0.00000000       0.00000000       0.00000000       0.00000000       0.00000000      -0.01615529
Os       0.00000000       0.00000000       5.35333333       0.00000000       0.00000000       0.01615529
2
Properties=species:S:1:pos:R:3:forces:R:3 energy=-89.92411510201921 pbc="F F F"
Os       0.00000000       0.00000000       0.00000000       0.00000000       0.00000000      -0.01104177
Os       0.00000000       0.00000000       5.41212121       0.00000000       0.00000000       0.01104177
2
Properties=species:S:1:pos:R:3:forces:R:3 energy=-89.9247404962119 pbc="F F F"
Os       0.00000000       0.00000000       0.00000000       0.00000000       0.00000000      -0.01165841
Os       0.00000000       0.00000000       5.47090909       0.00000000       0.00000000       0.01165841
2
Properties=species:S:1:pos:R:3:forces:R:3 energy=-89.9254689425151 pbc="F F F"
Os       0.00000000       0.00000000       0.00000000       0.00000000       0.00000000      -0.01113844
Os       0.00000000       0.00000000       5.52969697       0.00000000       0.00000000       0.01113844
2
Properties=species:S:1:pos:R:3:forces:R:3 energy=-89.9257593288768 pbc="F F F"
Os       0.00000000       0.00000000       0.00000000       0.00000000       0.00000000       0.00286746
Os       0.00000000       0.00000000       5.58848485       0.00000000       0.00000000      -0.00286746
2
Properties=species:S:1:pos:R:3:forces:R:3 energy=-89.92514687678809 pbc="F F F"
Os       0.00000000       0.00000000       0.00000000       0.00000000       0.00000000       0.01636261
Os       0.00000000       0.00000000       5.64727273       0.00000000       0.00000000      -0.01636261
2
Properties=species:S:1:pos:R:3:forces:R:3 energy=-89.9240670755028 pbc="F F F"
Os       0.00000000       0.00000000       0.00000000       0.00000000       0.00000000       0.01916522
Os       0.00000000       0.00000000       5.70606061       0.00000000       0.00000000      -0.01916522
2
Properties=species:S:1:pos:R:3:forces:R:3 energy=-89.92287913616856 pbc="F F F"
Os       0.00000000       0.00000000       0.00000000       0.00000000       0.00000000       0.02277911
Os       0.00000000       0.00000000       5.76484848       0.00000000       0.00000000      -0.02277911
2
Properties=species:S:1:pos:R:3:forces:R:3 energy=-89.92122511951831 pbc="F F F"
Os       0.00000000       0.00000000       0.00000000       0.00000000       0.00000000       0.03318145
Os       0.00000000       0.00000000       5.82363636       0.00000000       0.00000000      -0.03318145
2
Properties=species:S:1:pos:R:3:forces:R:3 energy=-89.91927349629275 pbc="F F F"
Os       0.00000000       0.00000000       0.00000000       0.00000000       0.00000000       0.02978967
Os       0.00000000       0.00000000       5.88242424       0.00000000       0.00000000      -0.02978967
2
Properties=species:S:1:pos:R:3:forces:R:3 energy=-89.91800145146887 pbc="F F F"
Os       0.00000000       0.00000000       0.00000000       0.00000000       0.00000000       0.01282238
Os       0.00000000       0.00000000       5.94121212       0.00000000       0.00000000      -0.01282238
2
Properties=species:S:1:pos:R:3:forces:R:3 energy=-89.91758506775888 pbc="F F F"
Os       0.00000000       0.00000000       0.00000000       0.00000000       0.00000000       0.00421444
Os       0.00000000       0.00000000       6.00000000       0.00000000       0.00000000      -0.00421444
