2
Properties=species:S:1:pos:R:3:forces:R:3 energy=76131.02021490422 pbc="F F F"
Pb       0.00000000       0.00000000       0.00000000       0.00000000       0.00000000 -314138.68750000
Pb       0.00000000       0.00000000       0.18000000       0.00000000       0.00000000  314138.68750000
2
Properties=species:S:1:pos:R:3:forces:R:3 energy=64365.469433654216 pbc="F F F"
Pb       0.00000000       0.00000000       0.00000000       0.00000000       0.00000000 -131895.70312500
Pb       0.00000000       0.00000000       0.23878788       0.00000000       0.00000000  131895.70312500
2
Properties=species:S:1:pos:R:3:forces:R:3 energy=57703.430371154216 pbc="F F F"
Pb       0.00000000       0.00000000       0.00000000       0.00000000       0.00000000 -108564.25781250
Pb       0.00000000       0.00000000       0.29757576       0.00000000       0.00000000  108564.25781250
2
Properties=species:S:1:pos:R:3:forces:R:3 energy=50529.617871154216 pbc="F F F"
Pb       0.00000000       0.00000000       0.00000000       0.00000000       0.00000000 -141530.82812500
Pb       0.00000000       0.00000000       0.35636364       0.00000000       0.00000000  141530.82812500
2
Properties=species:S:1:pos:R:3:forces:R:3 energy=40517.46552740501 pbc="F F F"
Pb       0.00000000       0.00000000       0.00000000       0.00000000       0.00000000 -203179.70312500
Pb       0.00000000       0.00000000       0.41515152       0.00000000       0.00000000  203179.70312500
2
Properties=species:S:1:pos:R:3:forces:R:3 energy=26830.307324280802 pbc="F F F"
Pb       0.00000000       0.00000000       0.00000000       0.00000000       0.00000000 -261989.12500000
Pb       0.00000000       0.00000000       0.47393939       0.00000000       0.00000000  261989.12500000
2
Properties=species:S:1:pos:R:3:forces:R:3 energy=11187.077832093302 pbc="F F F"
Pb       0.00000000       0.00000000       0.00000000       0.00000000       0.00000000 -258538.60937500
Pb       0.00000000       0.00000000       0.53272727       0.00000000       0.00000000  258538.60937500
2
Properties=species:S:1:pos:R:3:forces:R:3 energy=-1210.2922850918212 pbc="F F F"
Pb       0.00000000       0.00000000       0.00000000       0.00000000       0.00000000 -102912.72656250
Pb       0.00000000       0.00000000       0.59151515       0.00000000       0.00000000  102912.72656250
2
Properties=species:S:1:pos:R:3:forces:R:3 energy=-1246.434008720674 pbc="F F F"
Pb       0.00000000       0.00000000       0.00000000       0.00000000       0.00000000    4629.54687500
Pb       0.00000000       0.00000000       0.65030303       0.00000000       0.00000000   -4629.54687500
2
Properties=species:S:1:pos:R:3:forces:R:3 energy=-976.2141600839018 pbc="F F F"
Pb       0.00000000       0.00000000       0.00000000       0.00000000       0.00000000    5194.21679688
Pb       0.00000000       0.00000000       0.70909091       0.00000000       0.00000000   -5194.21679688
2
Properties=species:S:1:pos:R:3:forces:R:3 energy=-361.88035880724294 pbc="F F F"
Pb       0.00000000       0.00000000       0.00000000       0.00000000       0.00000000   15469.56738281
Pb       0.00000000       0.00000000       0.76787879       0.00000000       0.00000000  -15469.56738281
2
Properties=species:S:1:pos:R:3:forces:R:3 energy=-526.1923705149055 pbc="F F F"
Pb       0.00000000       0.00000000       0.00000000       0.00000000       0.00000000     153.41867065
Pb       0.00000000       0.00000000       0.82666667       0.00000000       0.00000000    -153.41867065
2
Properties=species:S:1:pos:R:3:forces:R:3 energy=-360.56822499125394 pbc="F F F"
Pb       0.00000000       0.00000000       0.00000000       0.00000000       0.00000000    4242.64306641
Pb       0.00000000       0.00000000       0.88545455       0.00000000       0.00000000   -4242.64306641
2
Properties=species:S:1:pos:R:3:forces:R:3 energy=-120.4993773144131 pbc="F F F"
Pb       0.00000000       0.00000000       0.00000000       0.00000000       0.00000000    3725.53784180
Pb       0.00000000       0.00000000       0.94424242       0.00000000       0.00000000   -3725.53784180
2
Properties=species:S:1:pos:R:3:forces:R:3 energy=65.39329239183168 pbc="F F F"
Pb       0.00000000       0.00000000       0.00000000       0.00000000       0.00000000    2517.87719727
Pb       0.00000000       0.00000000       1.00303030       0.00000000       0.00000000   -2517.87719727
2
Properties=species:S:1:pos:R:3:forces:R:3 energy=166.54852009256228 pbc="F F F"
Pb       0.00000000       0.00000000       0.00000000       0.00000000       0.00000000     869.78680420
Pb       0.00000000       0.00000000       1.06181818       0.00000000       0.00000000    -869.78680420
2
Properties=species:S:1:pos:R:3:forces:R:3 energy=185.42855554522197 pbc="F F F"
Pb       0.00000000       0.00000000       0.00000000       0.00000000       0.00000000    -197.54718018
Pb       0.00000000       0.00000000       1.12060606       0.00000000       0.00000000     197.54718018
2
Properties=species:S:1:pos:R:3:forces:R:3 energy=145.67489350395513 pbc="F F F"
Pb       0.00000000       0.00000000       0.00000000       0.00000000       0.00000000   -1008.12493896
Pb       0.00000000       0.00000000       1.17939394       0.00000000       0.00000000    1008.12493896
2
Properties=species:S:1:pos:R:3:forces:R:3 energy=83.95863077289549 pbc="F F F"
Pb       0.00000000       0.00000000       0.00000000       0.00000000       0.00000000   -1027.95239258
Pb       0.00000000       0.00000000       1.23818182       0.00000000       0.00000000    1027.95239258
2
Properties=species:S:1:pos:R:3:forces:R:3 energy=27.535306299600276 pbc="F F F"
Pb       0.00000000       0.00000000       0.00000000       0.00000000       0.00000000    -883.09765625
Pb       0.00000000       0.00000000       1.29696970       0.00000000       0.00000000     883.09765625
2
Properties=species:S:1:pos:R:3:forces:R:3 energy=-17.1328454164843 pbc="F F F"
Pb       0.00000000       0.00000000       0.00000000       0.00000000       0.00000000    -655.68316650
Pb       0.00000000       0.00000000       1.35575758       0.00000000       0.00000000     655.68316650
2
Properties=species:S:1:pos:R:3:forces:R:3 energy=-50.406381924382984 pbc="F F F"
Pb       0.00000000       0.00000000       0.00000000       0.00000000       0.00000000    -367.06158447
Pb       0.00000000       0.00000000       1.41454545       0.00000000       0.00000000     367.06158447
2
Properties=species:S:1:pos:R:3:forces:R:3 energy=-67.11610613444866 pbc="F F F"
Pb       0.00000000       0.00000000       0.00000000       0.00000000       0.00000000    -208.26901245
Pb       0.00000000       0.00000000       1.47333333       0.00000000       0.00000000     208.26901245
2
Properties=species:S:1:pos:R:3:forces:R:3 energy=-76.65837271563863 pbc="F F F"
Pb       0.00000000       0.00000000       0.00000000       0.00000000       0.00000000    -127.82883453
Pb       0.00000000       0.00000000       1.53212121       0.00000000       0.00000000     127.82883453
2
Properties=species:S:1:pos:R:3:forces:R:3 energy=-83.13609456128148 pbc="F F F"
Pb       0.00000000       0.00000000       0.00000000       0.00000000       0.00000000     -96.82474518
Pb       0.00000000       0.00000000       1.59090909       0.00000000       0.00000000      96.82474518
2
Properties=species:S:1:pos:R:3:forces:R:3 energy=-87.78942211353389 pbc="F F F"
Pb       0.00000000       0.00000000       0.00000000       0.00000000       0.00000000     -60.02930832
Pb       0.00000000       0.00000000       1.64969697       0.00000000       0.00000000      60.02930832
2
Properties=species:S:1:pos:R:3:forces:R:3 energy=-90.6255269929598 pbc="F F F"
Pb       0.00000000       0.00000000       0.00000000       0.00000000       0.00000000     -42.06281662
Pb       0.00000000       0.00000000       1.70848485       0.00000000       0.00000000      42.06281662
2
Properties=species:S:1:pos:R:3:forces:R:3 energy=-93.14539337719857 pbc="F F F"
Pb       0.00000000       0.00000000       0.00000000       0.00000000       0.00000000     -44.66919708
Pb       0.00000000       0.00000000       1.76727273       0.00000000       0.00000000      44.66919708
2
Properties=species:S:1:pos:R:3:forces:R:3 energy=-95.83476191757586 pbc="F F F"
Pb       0.00000000       0.00000000       0.00000000       0.00000000       0.00000000     -45.90766907
Pb       0.00000000       0.00000000       1.82606061       0.00000000       0.00000000      45.90766907
2
Properties=species:S:1:pos:R:3:forces:R:3 energy=-98.44628762358964 pbc="F F F"
Pb       0.00000000       0.00000000       0.00000000       0.00000000       0.00000000     -42.34095001
Pb       0.00000000       0.00000000       1.88484848       0.00000000       0.00000000      42.34095001
2
Properties=species:S:1:pos:R:3:forces:R:3 energy=-100.76979592202177 pbc="F F F"
Pb       0.00000000       0.00000000       0.00000000       0.00000000       0.00000000     -36.52378082
Pb       0.00000000       0.00000000       1.94363636       0.00000000       0.00000000      36.52378082
2
Properties=species:S:1:pos:R:3:forces:R:3 energy=-102.7331432375939 pbc="F F F"
Pb       0.00000000       0.00000000       0.00000000       0.00000000       0.00000000     -30.29061699
Pb       0.00000000       0.00000000       2.00242424       0.00000000       0.00000000      30.29061699
2
Properties=species:S:1:pos:R:3:forces:R:3 energy=-104.33900746719563 pbc="F F F"
Pb       0.00000000       0.00000000       0.00000000       0.00000000       0.00000000     -24.43828583
Pb       0.00000000       0.00000000       2.06121212       0.00000000       0.00000000      24.43828583
2
Properties=species:S:1:pos:R:3:forces:R:3 energy=-105.61958463832585 pbc="F F F"
Pb       0.00000000       0.00000000       0.00000000       0.00000000       0.00000000     -19.24813652
Pb       0.00000000       0.00000000       2.12000000       0.00000000       0.00000000      19.24813652
2
Properties=species:S:1:pos:R:3:forces:R:3 energy=-106.61666855284393 pbc="F F F"
Pb       0.00000000       0.00000000       0.00000000       0.00000000       0.00000000     -14.79787445
Pb       0.00000000       0.00000000       2.17878788       0.00000000       0.00000000      14.79787445
2
Properties=species:S:1:pos:R:3:forces:R:3 energy=-107.37404428774974 pbc="F F F"
Pb       0.00000000       0.00000000       0.00000000       0.00000000       0.00000000     -11.09097481
Pb       0.00000000       0.00000000       2.23757576       0.00000000       0.00000000      11.09097481
2
Properties=species:S:1:pos:R:3:forces:R:3 energy=-107.93471109319837 pbc="F F F"
Pb       0.00000000       0.00000000       0.00000000       0.00000000       0.00000000      -8.09868336
Pb       0.00000000       0.00000000       2.29636364       0.00000000       0.00000000       8.09868336
2
Properties=species:S:1:pos:R:3:forces:R:3 energy=-108.33922682418233 pbc="F F F"
Pb       0.00000000       0.00000000       0.00000000       0.00000000       0.00000000      -5.76767635
Pb       0.00000000       0.00000000       2.35515152       0.00000000       0.00000000       5.76767635
2
Properties=species:S:1:pos:R:3:forces:R:3 energy=-108.62428887314864 pbc="F F F"
Pb       0.00000000       0.00000000       0.00000000       0.00000000       0.00000000      -4.01940298
Pb       0.00000000       0.00000000       2.41393939       0.00000000       0.00000000       4.01940298
2
Properties=species:S:1:pos:R:3:forces:R:3 energy=-108.8212845882058 pbc="F F F"
Pb       0.00000000       0.00000000       0.00000000       0.00000000       0.00000000      -2.75414610
Pb       0.00000000       0.00000000       2.47272727       0.00000000       0.00000000       2.75414610
2
Properties=species:S:1:pos:R:3:forces:R:3 energy=-108.95546731356154 pbc="F F F"
Pb       0.00000000       0.00000000       0.00000000       0.00000000       0.00000000      -1.86493385
Pb       0.00000000       0.00000000       2.53151515       0.00000000       0.00000000       1.86493385
2
Properties=species:S:1:pos:R:3:forces:R:3 energy=-109.04602505724142 pbc="F F F"
Pb       0.00000000       0.00000000       0.00000000       0.00000000       0.00000000      -1.25559211
Pb       0.00000000       0.00000000       2.59030303       0.00000000       0.00000000       1.25559211
2
Properties=species:S:1:pos:R:3:forces:R:3 energy=-109.10704181143083 pbc="F F F"
Pb       0.00000000       0.00000000       0.00000000       0.00000000       0.00000000      -0.84801221
Pb       0.00000000       0.00000000       2.64909091       0.00000000       0.00000000       0.84801221
2
Properties=species:S:1:pos:R:3:forces:R:3 energy=-109.1483673208746 pbc="F F F"
Pb       0.00000000       0.00000000       0.00000000       0.00000000       0.00000000      -0.57487106
Pb       0.00000000       0.00000000       2.70787879       0.00000000       0.00000000       0.57487106
2
Properties=species:S:1:pos:R:3:forces:R:3 energy=-109.17599091766529 pbc="F F F"
Pb       0.00000000       0.00000000       0.00000000       0.00000000       0.00000000      -0.37139672
Pb       0.00000000       0.00000000       2.76666667       0.00000000       0.00000000       0.37139672
2
Properties=species:S:1:pos:R:3:forces:R:3 energy=-109.19223991559537 pbc="F F F"
Pb       0.00000000       0.00000000       0.00000000       0.00000000       0.00000000      -0.17914215
Pb       0.00000000       0.00000000       2.82545455       0.00000000       0.00000000       0.17914215
2
Properties=species:S:1:pos:R:3:forces:R:3 energy=-109.19648915572796 pbc="F F F"
Pb       0.00000000       0.00000000       0.00000000       0.00000000       0.00000000       0.04100876
Pb       0.00000000       0.00000000       2.88424242       0.00000000       0.00000000      -0.04100876
2
Properties=species:S:1:pos:R:3:forces:R:3 energy=-109.18666403196545 pbc="F F F"
Pb       0.00000000       0.00000000       0.00000000       0.00000000       0.00000000       0.29865587
Pb       0.00000000       0.00000000       2.94303030       0.00000000       0.00000000      -0.29865587
2
Properties=species:S:1:pos:R:3:forces:R:3 energy=-109.16099537850467 pbc="F F F"
Pb       0.00000000       0.00000000       0.00000000       0.00000000       0.00000000       0.57541990
Pb       0.00000000       0.00000000       3.00181818       0.00000000       0.00000000      -0.57541990
2
Properties=species:S:1:pos:R:3:forces:R:3 energy=-109.11927095822094 pbc="F F F"
Pb       0.00000000       0.00000000       0.00000000       0.00000000       0.00000000       0.83933121
Pb       0.00000000       0.00000000       3.06060606       0.00000000       0.00000000      -0.83933121
2
Properties=species:S:1:pos:R:3:forces:R:3 energy=-109.0630725567778 pbc="F F F"
Pb       0.00000000       0.00000000       0.00000000       0.00000000       0.00000000       1.06477237
Pb       0.00000000       0.00000000       3.11939394       0.00000000       0.00000000      -1.06477237
2
Properties=species:S:1:pos:R:3:forces:R:3 energy=-108.99499108157832 pbc="F F F"
Pb       0.00000000       0.00000000       0.00000000       0.00000000       0.00000000       1.24418938
Pb       0.00000000       0.00000000       3.17818182       0.00000000       0.00000000      -1.24418938
2
Properties=species:S:1:pos:R:3:forces:R:3 energy=-108.91755955447647 pbc="F F F"
Pb       0.00000000       0.00000000       0.00000000       0.00000000       0.00000000       1.38424850
Pb       0.00000000       0.00000000       3.23696970       0.00000000       0.00000000      -1.38424850
2
Properties=species:S:1:pos:R:3:forces:R:3 energy=-108.83282626720484 pbc="F F F"
Pb       0.00000000       0.00000000       0.00000000       0.00000000       0.00000000       1.49384117
Pb       0.00000000       0.00000000       3.29575758       0.00000000       0.00000000      -1.49384117
2
Properties=species:S:1:pos:R:3:forces:R:3 energy=-108.74244364937978 pbc="F F F"
Pb       0.00000000       0.00000000       0.00000000       0.00000000       0.00000000       1.57670701
Pb       0.00000000       0.00000000       3.35454545       0.00000000       0.00000000      -1.57670701
2
Properties=species:S:1:pos:R:3:forces:R:3 energy=-108.64797279853373 pbc="F F F"
Pb       0.00000000       0.00000000       0.00000000       0.00000000       0.00000000       1.63271964
Pb       0.00000000       0.00000000       3.41333333       0.00000000       0.00000000      -1.63271964
2
Properties=species:S:1:pos:R:3:forces:R:3 energy=-108.5509872502243 pbc="F F F"
Pb       0.00000000       0.00000000       0.00000000       0.00000000       0.00000000       1.66254830
Pb       0.00000000       0.00000000       3.47212121       0.00000000       0.00000000      -1.66254830
2
Properties=species:S:1:pos:R:3:forces:R:3 energy=-108.45293577089386 pbc="F F F"
Pb       0.00000000       0.00000000       0.00000000       0.00000000       0.00000000       1.67009437
Pb       0.00000000       0.00000000       3.53090909       0.00000000       0.00000000      -1.67009437
2
Properties=species:S:1:pos:R:3:forces:R:3 energy=-108.35493825126554 pbc="F F F"
Pb       0.00000000       0.00000000       0.00000000       0.00000000       0.00000000       1.66167200
Pb       0.00000000       0.00000000       3.58969697       0.00000000       0.00000000      -1.66167200
2
Properties=species:S:1:pos:R:3:forces:R:3 energy=-108.25774149073858 pbc="F F F"
Pb       0.00000000       0.00000000       0.00000000       0.00000000       0.00000000       1.64387321
Pb       0.00000000       0.00000000       3.64848485       0.00000000       0.00000000      -1.64387321
2
Properties=species:S:1:pos:R:3:forces:R:3 energy=-108.1617428418896 pbc="F F F"
Pb       0.00000000       0.00000000       0.00000000       0.00000000       0.00000000       1.62177062
Pb       0.00000000       0.00000000       3.70727273       0.00000000       0.00000000      -1.62177062
2
Properties=species:S:1:pos:R:3:forces:R:3 energy=-108.06709593671174 pbc="F F F"
Pb       0.00000000       0.00000000       0.00000000       0.00000000       0.00000000       1.59802127
Pb       0.00000000       0.00000000       3.76606061       0.00000000       0.00000000      -1.59802127
2
Properties=species:S:1:pos:R:3:forces:R:3 energy=-107.97387898836365 pbc="F F F"
Pb       0.00000000       0.00000000       0.00000000       0.00000000       0.00000000       1.57301545
Pb       0.00000000       0.00000000       3.82484848       0.00000000       0.00000000      -1.57301545
2
Properties=species:S:1:pos:R:3:forces:R:3 energy=-107.8821911167149 pbc="F F F"
Pb       0.00000000       0.00000000       0.00000000       0.00000000       0.00000000       1.54564118
Pb       0.00000000       0.00000000       3.88363636       0.00000000       0.00000000      -1.54564118
2
Properties=species:S:1:pos:R:3:forces:R:3 energy=-107.79222830491811 pbc="F F F"
Pb       0.00000000       0.00000000       0.00000000       0.00000000       0.00000000       1.51422107
Pb       0.00000000       0.00000000       3.94242424       0.00000000       0.00000000      -1.51422107
2
Properties=species:S:1:pos:R:3:forces:R:3 energy=-107.70426863875996 pbc="F F F"
Pb       0.00000000       0.00000000       0.00000000       0.00000000       0.00000000       1.47725296
Pb       0.00000000       0.00000000       4.00121212       0.00000000       0.00000000      -1.47725296
2
Properties=species:S:1:pos:R:3:forces:R:3 energy=-107.61866523717923 pbc="F F F"
Pb       0.00000000       0.00000000       0.00000000       0.00000000       0.00000000       1.43376994
Pb       0.00000000       0.00000000       4.06000000       0.00000000       0.00000000      -1.43376994
2
Properties=species:S:1:pos:R:3:forces:R:3 energy=-107.53582381233007 pbc="F F F"
Pb       0.00000000       0.00000000       0.00000000       0.00000000       0.00000000       1.38341403
Pb       0.00000000       0.00000000       4.11878788       0.00000000       0.00000000      -1.38341403
2
Properties=species:S:1:pos:R:3:forces:R:3 energy=-107.45614192269747 pbc="F F F"
Pb       0.00000000       0.00000000       0.00000000       0.00000000       0.00000000       1.32627821
Pb       0.00000000       0.00000000       4.17757576       0.00000000       0.00000000      -1.32627821
2
Properties=species:S:1:pos:R:3:forces:R:3 energy=-107.38000916237476 pbc="F F F"
Pb       0.00000000       0.00000000       0.00000000       0.00000000       0.00000000       1.26271963
Pb       0.00000000       0.00000000       4.23636364       0.00000000       0.00000000      -1.26271963
2
Properties=species:S:1:pos:R:3:forces:R:3 energy=-107.30779201789996 pbc="F F F"
Pb       0.00000000       0.00000000       0.00000000       0.00000000       0.00000000       1.19320977
Pb       0.00000000       0.00000000       4.29515152       0.00000000       0.00000000      -1.19320977
2
Properties=species:S:1:pos:R:3:forces:R:3 energy=-107.23982632518445 pbc="F F F"
Pb       0.00000000       0.00000000       0.00000000       0.00000000       0.00000000       1.11831391
Pb       0.00000000       0.00000000       4.35393939       0.00000000       0.00000000      -1.11831391
2
Properties=species:S:1:pos:R:3:forces:R:3 energy=-107.17640203844232 pbc="F F F"
Pb       0.00000000       0.00000000       0.00000000       0.00000000       0.00000000       1.03872383
Pb       0.00000000       0.00000000       4.41272727       0.00000000       0.00000000      -1.03872383
2
Properties=species:S:1:pos:R:3:forces:R:3 energy=-107.11777092452527 pbc="F F F"
Pb       0.00000000       0.00000000       0.00000000       0.00000000       0.00000000       0.95538920
Pb       0.00000000       0.00000000       4.47151515       0.00000000       0.00000000      -0.95538920
2
Properties=species:S:1:pos:R:3:forces:R:3 energy=-107.06411604296865 pbc="F F F"
Pb       0.00000000       0.00000000       0.00000000       0.00000000       0.00000000       0.86955792
Pb       0.00000000       0.00000000       4.53030303       0.00000000       0.00000000      -0.86955792
2
Properties=species:S:1:pos:R:3:forces:R:3 energy=-107.01555176183051 pbc="F F F"
Pb       0.00000000       0.00000000       0.00000000       0.00000000       0.00000000       0.78275800
Pb       0.00000000       0.00000000       4.58909091       0.00000000       0.00000000      -0.78275800
2
Properties=species:S:1:pos:R:3:forces:R:3 energy=-106.97207037806444 pbc="F F F"
Pb       0.00000000       0.00000000       0.00000000       0.00000000       0.00000000       0.69671285
Pb       0.00000000       0.00000000       4.64787879       0.00000000       0.00000000      -0.69671285
2
Properties=species:S:1:pos:R:3:forces:R:3 energy=-106.93358026211641 pbc="F F F"
Pb       0.00000000       0.00000000       0.00000000       0.00000000       0.00000000       0.61312371
Pb       0.00000000       0.00000000       4.70666667       0.00000000       0.00000000      -0.61312371
2
Properties=species:S:1:pos:R:3:forces:R:3 energy=-106.89989823644969 pbc="F F F"
Pb       0.00000000       0.00000000       0.00000000       0.00000000       0.00000000       0.53356683
Pb       0.00000000       0.00000000       4.76545455       0.00000000       0.00000000      -0.53356683
2
Properties=species:S:1:pos:R:3:forces:R:3 energy=-106.87074195644583 pbc="F F F"
Pb       0.00000000       0.00000000       0.00000000       0.00000000       0.00000000       0.45937431
Pb       0.00000000       0.00000000       4.82424242       0.00000000       0.00000000      -0.45937431
2
Properties=species:S:1:pos:R:3:forces:R:3 energy=-106.84576042719078 pbc="F F F"
Pb       0.00000000       0.00000000       0.00000000       0.00000000       0.00000000       0.39168829
Pb       0.00000000       0.00000000       4.88303030       0.00000000       0.00000000      -0.39168829
2
Properties=species:S:1:pos:R:3:forces:R:3 energy=-106.82454164158099 pbc="F F F"
Pb       0.00000000       0.00000000       0.00000000       0.00000000       0.00000000       0.33156413
Pb       0.00000000       0.00000000       4.94181818       0.00000000       0.00000000      -0.33156413
2
Properties=species:S:1:pos:R:3:forces:R:3 energy=-106.8066049509288 pbc="F F F"
Pb       0.00000000       0.00000000       0.00000000       0.00000000       0.00000000       0.28008470
Pb       0.00000000       0.00000000       5.00060606       0.00000000       0.00000000      -0.28008470
2
Properties=species:S:1:pos:R:3:forces:R:3 energy=-106.79142396581739 pbc="F F F"
Pb       0.00000000       0.00000000       0.00000000       0.00000000       0.00000000       0.23825280
Pb       0.00000000       0.00000000       5.05939394       0.00000000       0.00000000      -0.23825280
2
Properties=species:S:1:pos:R:3:forces:R:3 energy=-106.77839601397197 pbc="F F F"
Pb       0.00000000       0.00000000       0.00000000       0.00000000       0.00000000       0.20665441
Pb       0.00000000       0.00000000       5.11818182       0.00000000       0.00000000      -0.20665441
2
Properties=species:S:1:pos:R:3:forces:R:3 energy=-106.76693373496785 pbc="F F F"
Pb       0.00000000       0.00000000       0.00000000       0.00000000       0.00000000       0.18493800
Pb       0.00000000       0.00000000       5.17696970       0.00000000       0.00000000      -0.18493800
2
Properties=species:S:1:pos:R:3:forces:R:3 energy=-106.75649556850622 pbc="F F F"
Pb       0.00000000       0.00000000       0.00000000       0.00000000       0.00000000       0.17128907
Pb       0.00000000       0.00000000       5.23575758       0.00000000       0.00000000      -0.17128907
2
Properties=species:S:1:pos:R:3:forces:R:3 energy=-106.74670021037922 pbc="F F F"
Pb       0.00000000       0.00000000       0.00000000       0.00000000       0.00000000       0.16226614
Pb       0.00000000       0.00000000       5.29454545       0.00000000       0.00000000      -0.16226614
2
Properties=species:S:1:pos:R:3:forces:R:3 energy=-106.73741053818566 pbc="F F F"
Pb       0.00000000       0.00000000       0.00000000       0.00000000       0.00000000       0.15334913
Pb       0.00000000       0.00000000       5.35333333       0.00000000       0.00000000      -0.15334913
2
Properties=species:S:1:pos:R:3:forces:R:3 energy=-106.72874122409455 pbc="F F F"
Pb       0.00000000       0.00000000       0.00000000       0.00000000       0.00000000       0.14094874
Pb       0.00000000       0.00000000       5.41212121       0.00000000       0.00000000      -0.14094874
2
Properties=species:S:1:pos:R:3:forces:R:3 energy=-106.72089091825964 pbc="F F F"
Pb       0.00000000       0.00000000       0.00000000       0.00000000       0.00000000       0.12606379
Pb       0.00000000       0.00000000       5.47090909       0.00000000       0.00000000      -0.12606379
2
Properties=species:S:1:pos:R:3:forces:R:3 energy=-106.7138446675867 pbc="F F F"
Pb       0.00000000       0.00000000       0.00000000       0.00000000       0.00000000       0.11466656
Pb       0.00000000       0.00000000       5.52969697       0.00000000       0.00000000      -0.11466656
2
Properties=species:S:1:pos:R:3:forces:R:3 energy=-106.70727475181961 pbc="F F F"
Pb       0.00000000       0.00000000       0.00000000       0.00000000       0.00000000       0.10998371
Pb       0.00000000       0.00000000       5.58848485       0.00000000       0.00000000      -0.10998371
2
Properties=species:S:1:pos:R:3:forces:R:3 energy=-106.70088400708616 pbc="F F F"
Pb       0.00000000       0.00000000       0.00000000       0.00000000       0.00000000       0.10693832
Pb       0.00000000       0.00000000       5.64727273       0.00000000       0.00000000      -0.10693832
2
Properties=species:S:1:pos:R:3:forces:R:3 energy=-106.6948177949878 pbc="F F F"
Pb       0.00000000       0.00000000       0.00000000       0.00000000       0.00000000       0.09808553
Pb       0.00000000       0.00000000       5.70606061       0.00000000       0.00000000      -0.09808553
2
Properties=species:S:1:pos:R:3:forces:R:3 energy=-106.68950379323408 pbc="F F F"
Pb       0.00000000       0.00000000       0.00000000       0.00000000       0.00000000       0.08122387
Pb       0.00000000       0.00000000       5.76484848       0.00000000       0.00000000      -0.08122387
2
Properties=species:S:1:pos:R:3:forces:R:3 energy=-106.6854002240391 pbc="F F F"
Pb       0.00000000       0.00000000       0.00000000       0.00000000       0.00000000       0.05760229
Pb       0.00000000       0.00000000       5.82363636       0.00000000       0.00000000      -0.05760229
2
Properties=species:S:1:pos:R:3:forces:R:3 energy=-106.68278984463016 pbc="F F F"
Pb       0.00000000       0.00000000       0.00000000       0.00000000       0.00000000       0.03154642
Pb       0.00000000       0.00000000       5.88242424       0.00000000       0.00000000      -0.03154642
2
Properties=species:S:1:pos:R:3:forces:R:3 energy=-106.6815815885336 pbc="F F F"
Pb       0.00000000       0.00000000       0.00000000       0.00000000       0.00000000       0.01119280
Pb       0.00000000       0.00000000       5.94121212       0.00000000       0.00000000      -0.01119280
2
Properties=species:S:1:pos:R:3:forces:R:3 energy=-106.68121900016911 pbc="F F F"
Pb       0.00000000       0.00000000       0.00000000       0.00000000       0.00000000       0.00357947
Pb       0.00000000       0.00000000       6.00000000       0.00000000       0.00000000      -0.00357947
