2
Properties=species:S:1:pos:R:3:forces:R:3 energy=-551071.8541439397 pbc="F F F"
Pr       0.00000000       0.00000000       0.00000000       0.00000000       0.00000000 -182671.35937500
Pr       0.00000000       0.00000000       0.18000000       0.00000000       0.00000000  182671.35937500
2
Properties=species:S:1:pos:R:3:forces:R:3 energy=-557319.4791439397 pbc="F F F"
Pr       0.00000000       0.00000000       0.00000000       0.00000000       0.00000000  -54593.12890625
Pr       0.00000000       0.00000000       0.23878788       0.00000000       0.00000000   54593.12890625
2
Properties=species:S:1:pos:R:3:forces:R:3 energy=-558880.1041439397 pbc="F F F"
Pr       0.00000000       0.00000000       0.00000000       0.00000000       0.00000000   -2946.78100586
Pr       0.00000000       0.00000000       0.29757576       0.00000000       0.00000000    2946.78100586
2
Properties=species:S:1:pos:R:3:forces:R:3 energy=-557694.9791439397 pbc="F F F"
Pr       0.00000000       0.00000000       0.00000000       0.00000000       0.00000000   46455.91796875
Pr       0.00000000       0.00000000       0.35636364       0.00000000       0.00000000  -46455.91796875
2
Properties=species:S:1:pos:R:3:forces:R:3 energy=-552611.1666439397 pbc="F F F"
Pr       0.00000000       0.00000000       0.00000000       0.00000000       0.00000000  137531.78125000
Pr       0.00000000       0.00000000       0.41515152       0.00000000       0.00000000 -137531.78125000
2
Properties=species:S:1:pos:R:3:forces:R:3 energy=-502123.51039393654 pbc="F F F"
Pr       0.00000000       0.00000000       0.00000000       0.00000000       0.00000000 1203004.12500000
Pr       0.00000000       0.00000000       0.47393939       0.00000000       0.00000000 -1203004.12500000
2
Properties=species:S:1:pos:R:3:forces:R:3 energy=-420569.85414393654 pbc="F F F"
Pr       0.00000000       0.00000000       0.00000000       0.00000000       0.00000000 1559371.12500000
Pr       0.00000000       0.00000000       0.53272727       0.00000000       0.00000000 -1559371.12500000
2
Properties=species:S:1:pos:R:3:forces:R:3 energy=-321397.51039393333 pbc="F F F"
Pr       0.00000000       0.00000000       0.00000000       0.00000000       0.00000000 1781955.00000000
Pr       0.00000000       0.00000000       0.59151515       0.00000000       0.00000000 -1781955.00000000
2
Properties=species:S:1:pos:R:3:forces:R:3 energy=-220565.76039392385 pbc="F F F"
Pr       0.00000000       0.00000000       0.00000000       0.00000000       0.00000000 1658991.12500000
Pr       0.00000000       0.00000000       0.65030303       0.00000000       0.00000000 -1658991.12500000
2
Properties=species:S:1:pos:R:3:forces:R:3 energy=-125614.72914391753 pbc="F F F"
Pr       0.00000000       0.00000000       0.00000000       0.00000000       0.00000000 1532362.12500000
Pr       0.00000000       0.00000000       0.70909091       0.00000000       0.00000000 -1532362.12500000
2
Properties=species:S:1:pos:R:3:forces:R:3 energy=-53495.32680015485 pbc="F F F"
Pr       0.00000000       0.00000000       0.00000000       0.00000000       0.00000000  902958.93750000
Pr       0.00000000       0.00000000       0.76787879       0.00000000       0.00000000 -902958.93750000
2
Properties=species:S:1:pos:R:3:forces:R:3 energy=-8943.960589198346 pbc="F F F"
Pr       0.00000000       0.00000000       0.00000000       0.00000000       0.00000000  399217.37500000
Pr       0.00000000       0.00000000       0.82666667       0.00000000       0.00000000 -399217.37500000
2
Properties=species:S:1:pos:R:3:forces:R:3 energy=996.0615665887153 pbc="F F F"
Pr       0.00000000       0.00000000       0.00000000       0.00000000       0.00000000    8460.25781250
Pr       0.00000000       0.00000000       0.88545455       0.00000000       0.00000000   -8460.25781250
2
Properties=species:S:1:pos:R:3:forces:R:3 energy=5.93222168654359 pbc="F F F"
Pr       0.00000000       0.00000000       0.00000000       0.00000000       0.00000000  -10863.14843750
Pr       0.00000000       0.00000000       0.94424242       0.00000000       0.00000000   10863.14843750
2
Properties=species:S:1:pos:R:3:forces:R:3 energy=-44.73540369001735 pbc="F F F"
Pr       0.00000000       0.00000000       0.00000000       0.00000000       0.00000000    2875.91918945
Pr       0.00000000       0.00000000       1.00303030       0.00000000       0.00000000   -2875.91918945
2
Properties=species:S:1:pos:R:3:forces:R:3 energy=1.5788282458976874 pbc="F F F"
Pr       0.00000000       0.00000000       0.00000000       0.00000000       0.00000000     -42.72625351
Pr       0.00000000       0.00000000       1.06181818       0.00000000       0.00000000      42.72625351
2
Properties=species:S:1:pos:R:3:forces:R:3 energy=0.3692564962178013 pbc="F F F"
Pr       0.00000000       0.00000000       0.00000000       0.00000000       0.00000000     -46.02161407
Pr       0.00000000       0.00000000       1.12060606       0.00000000       0.00000000      46.02161407
2
Properties=species:S:1:pos:R:3:forces:R:3 energy=-3.3482459805669196 pbc="F F F"
Pr       0.00000000       0.00000000       0.00000000       0.00000000       0.00000000     -75.08047485
Pr       0.00000000       0.00000000       1.17939394       0.00000000       0.00000000      75.08047485
2
Properties=species:S:1:pos:R:3:forces:R:3 energy=-8.139860364149982 pbc="F F F"
Pr       0.00000000       0.00000000       0.00000000       0.00000000       0.00000000     -86.26057434
Pr       0.00000000       0.00000000       1.23818182       0.00000000       0.00000000      86.26057434
2
Properties=species:S:1:pos:R:3:forces:R:3 energy=-13.2416172236412 pbc="F F F"
Pr       0.00000000       0.00000000       0.00000000       0.00000000       0.00000000     -85.13201904
Pr       0.00000000       0.00000000       1.29696970       0.00000000       0.00000000      85.13201904
2
Properties=species:S:1:pos:R:3:forces:R:3 energy=-18.02562882370703 pbc="F F F"
Pr       0.00000000       0.00000000       0.00000000       0.00000000       0.00000000     -77.87385559
Pr       0.00000000       0.00000000       1.35575758       0.00000000       0.00000000      77.87385559
2
Properties=species:S:1:pos:R:3:forces:R:3 energy=-22.504781205375107 pbc="F F F"
Pr       0.00000000       0.00000000       0.00000000       0.00000000       0.00000000     -75.45496368
Pr       0.00000000       0.00000000       1.41454545       0.00000000       0.00000000      75.45496368
2
Properties=species:S:1:pos:R:3:forces:R:3 energy=-26.94789988064436 pbc="F F F"
Pr       0.00000000       0.00000000       0.00000000       0.00000000       0.00000000     -75.66602325
Pr       0.00000000       0.00000000       1.47333333       0.00000000       0.00000000      75.66602325
2
Properties=species:S:1:pos:R:3:forces:R:3 energy=-31.380905717434707 pbc="F F F"
Pr       0.00000000       0.00000000       0.00000000       0.00000000       0.00000000     -74.96021271
Pr       0.00000000       0.00000000       1.53212121       0.00000000       0.00000000      74.96021271
2
Properties=species:S:1:pos:R:3:forces:R:3 energy=-35.738342296854896 pbc="F F F"
Pr       0.00000000       0.00000000       0.00000000       0.00000000       0.00000000     -73.05377960
Pr       0.00000000       0.00000000       1.59090909       0.00000000       0.00000000      73.05377960
2
Properties=species:S:1:pos:R:3:forces:R:3 energy=-39.937995253932705 pbc="F F F"
Pr       0.00000000       0.00000000       0.00000000       0.00000000       0.00000000     -69.50430298
Pr       0.00000000       0.00000000       1.64969697       0.00000000       0.00000000      69.50430298
2
Properties=species:S:1:pos:R:3:forces:R:3 energy=-43.868246530836835 pbc="F F F"
Pr       0.00000000       0.00000000       0.00000000       0.00000000       0.00000000     -63.79921341
Pr       0.00000000       0.00000000       1.70848485       0.00000000       0.00000000      63.79921341
2
Properties=species:S:1:pos:R:3:forces:R:3 energy=-47.38540789715259 pbc="F F F"
Pr       0.00000000       0.00000000       0.00000000       0.00000000       0.00000000     -55.36522293
Pr       0.00000000       0.00000000       1.76727273       0.00000000       0.00000000      55.36522293
2
Properties=species:S:1:pos:R:3:forces:R:3 energy=-50.32516506385351 pbc="F F F"
Pr       0.00000000       0.00000000       0.00000000       0.00000000       0.00000000     -44.31912994
Pr       0.00000000       0.00000000       1.82606061       0.00000000       0.00000000      44.31912994
2
Properties=species:S:1:pos:R:3:forces:R:3 energy=-52.58276641234731 pbc="F F F"
Pr       0.00000000       0.00000000       0.00000000       0.00000000       0.00000000     -32.60557556
Pr       0.00000000       0.00000000       1.88484848       0.00000000       0.00000000      32.60557556
2
Properties=species:S:1:pos:R:3:forces:R:3 energy=-54.1960003084047 pbc="F F F"
Pr       0.00000000       0.00000000       0.00000000       0.00000000       0.00000000     -22.73462296
Pr       0.00000000       0.00000000       1.94363636       0.00000000       0.00000000      22.73462296
2
Properties=species:S:1:pos:R:3:forces:R:3 energy=-55.315097128062284 pbc="F F F"
Pr       0.00000000       0.00000000       0.00000000       0.00000000       0.00000000     -15.83290958
Pr       0.00000000       0.00000000       2.00242424       0.00000000       0.00000000      15.83290958
2
Properties=species:S:1:pos:R:3:forces:R:3 energy=-56.10825065044488 pbc="F F F"
Pr       0.00000000       0.00000000       0.00000000       0.00000000       0.00000000     -11.50454617
Pr       0.00000000       0.00000000       2.06121212       0.00000000       0.00000000      11.50454617
2
Properties=species:S:1:pos:R:3:forces:R:3 energy=-56.70100633924761 pbc="F F F"
Pr       0.00000000       0.00000000       0.00000000       0.00000000       0.00000000      -8.88551235
Pr       0.00000000       0.00000000       2.12000000       0.00000000       0.00000000       8.88551235
2
Properties=species:S:1:pos:R:3:forces:R:3 energy=-57.17409839988283 pbc="F F F"
Pr       0.00000000       0.00000000       0.00000000       0.00000000       0.00000000      -7.34845352
Pr       0.00000000       0.00000000       2.17878788       0.00000000       0.00000000       7.34845352
2
Properties=species:S:1:pos:R:3:forces:R:3 energy=-57.57665245621991 pbc="F F F"
Pr       0.00000000       0.00000000       0.00000000       0.00000000       0.00000000      -6.40599680
Pr       0.00000000       0.00000000       2.23757576       0.00000000       0.00000000       6.40599680
2
Properties=species:S:1:pos:R:3:forces:R:3 energy=-57.930049835747546 pbc="F F F"
Pr       0.00000000       0.00000000       0.00000000       0.00000000       0.00000000      -5.60946321
Pr       0.00000000       0.00000000       2.29636364       0.00000000       0.00000000       5.60946321
2
Properties=species:S:1:pos:R:3:forces:R:3 energy=-58.232955337401954 pbc="F F F"
Pr       0.00000000       0.00000000       0.00000000       0.00000000       0.00000000      -4.65554714
Pr       0.00000000       0.00000000       2.35515152       0.00000000       0.00000000       4.65554714
2
Properties=species:S:1:pos:R:3:forces:R:3 energy=-58.47262399109442 pbc="F F F"
Pr       0.00000000       0.00000000       0.00000000       0.00000000       0.00000000      -3.46326280
Pr       0.00000000       0.00000000       2.41393939       0.00000000       0.00000000       3.46326280
2
Properties=species:S:1:pos:R:3:forces:R:3 energy=-58.637661229568266 pbc="F F F"
Pr       0.00000000       0.00000000       0.00000000       0.00000000       0.00000000      -2.14718509
Pr       0.00000000       0.00000000       2.47272727       0.00000000       0.00000000       2.14718509
2
Properties=species:S:1:pos:R:3:forces:R:3 energy=-58.726827203352244 pbc="F F F"
Pr       0.00000000       0.00000000       0.00000000       0.00000000       0.00000000      -0.91979760
Pr       0.00000000       0.00000000       2.53151515       0.00000000       0.00000000       0.91979760
2
Properties=species:S:1:pos:R:3:forces:R:3 energy=-58.75157736280383 pbc="F F F"
Pr       0.00000000       0.00000000       0.00000000       0.00000000       0.00000000       0.01646663
Pr       0.00000000       0.00000000       2.59030303       0.00000000       0.00000000      -0.01646663
2
Properties=species:S:1:pos:R:3:forces:R:3 energy=-58.732774201737534 pbc="F F F"
Pr       0.00000000       0.00000000       0.00000000       0.00000000       0.00000000       0.55525267
Pr       0.00000000       0.00000000       2.64909091       0.00000000       0.00000000      -0.55525267
2
Properties=species:S:1:pos:R:3:forces:R:3 energy=-58.69359572887244 pbc="F F F"
Pr       0.00000000       0.00000000       0.00000000       0.00000000       0.00000000       0.72504842
Pr       0.00000000       0.00000000       2.70787879       0.00000000       0.00000000      -0.72504842
2
Properties=species:S:1:pos:R:3:forces:R:3 energy=-58.65221505427605 pbc="F F F"
Pr       0.00000000       0.00000000       0.00000000       0.00000000       0.00000000       0.65632933
Pr       0.00000000       0.00000000       2.76666667       0.00000000       0.00000000      -0.65632933
2
Properties=species:S:1:pos:R:3:forces:R:3 energy=-58.61807726067208 pbc="F F F"
Pr       0.00000000       0.00000000       0.00000000       0.00000000       0.00000000       0.50166702
Pr       0.00000000       0.00000000       2.82545455       0.00000000       0.00000000      -0.50166702
2
Properties=species:S:1:pos:R:3:forces:R:3 energy=-58.592757691318354 pbc="F F F"
Pr       0.00000000       0.00000000       0.00000000       0.00000000       0.00000000       0.36891747
Pr       0.00000000       0.00000000       2.88424242       0.00000000       0.00000000      -0.36891747
2
Properties=species:S:1:pos:R:3:forces:R:3 energy=-58.57337995993847 pbc="F F F"
Pr       0.00000000       0.00000000       0.00000000       0.00000000       0.00000000       0.30203873
Pr       0.00000000       0.00000000       2.94303030       0.00000000       0.00000000      -0.30203873
2
Properties=species:S:1:pos:R:3:forces:R:3 energy=-58.555972798784325 pbc="F F F"
Pr       0.00000000       0.00000000       0.00000000       0.00000000       0.00000000       0.29936257
Pr       0.00000000       0.00000000       3.00181818       0.00000000       0.00000000      -0.29936257
2
Properties=species:S:1:pos:R:3:forces:R:3 energy=-58.53727834234949 pbc="F F F"
Pr       0.00000000       0.00000000       0.00000000       0.00000000       0.00000000       0.34295925
Pr       0.00000000       0.00000000       3.06060606       0.00000000       0.00000000      -0.34295925
2
Properties=species:S:1:pos:R:3:forces:R:3 energy=-58.51499613177781 pbc="F F F"
Pr       0.00000000       0.00000000       0.00000000       0.00000000       0.00000000       0.42034963
Pr       0.00000000       0.00000000       3.11939394       0.00000000       0.00000000      -0.42034963
2
Properties=species:S:1:pos:R:3:forces:R:3 energy=-58.48719964041201 pbc="F F F"
Pr       0.00000000       0.00000000       0.00000000       0.00000000       0.00000000       0.53139257
Pr       0.00000000       0.00000000       3.17818182       0.00000000       0.00000000      -0.53139257
2
Properties=species:S:1:pos:R:3:forces:R:3 energy=-58.45174478980909 pbc="F F F"
Pr       0.00000000       0.00000000       0.00000000       0.00000000       0.00000000       0.68184912
Pr       0.00000000       0.00000000       3.23696970       0.00000000       0.00000000      -0.68184912
2
Properties=species:S:1:pos:R:3:forces:R:3 energy=-58.406262462897764 pbc="F F F"
Pr       0.00000000       0.00000000       0.00000000       0.00000000       0.00000000       0.87107444
Pr       0.00000000       0.00000000       3.29575758       0.00000000       0.00000000      -0.87107444
2
Properties=species:S:1:pos:R:3:forces:R:3 energy=-58.34886037342931 pbc="F F F"
Pr       0.00000000       0.00000000       0.00000000       0.00000000       0.00000000       1.08352029
Pr       0.00000000       0.00000000       3.35454545       0.00000000       0.00000000      -1.08352029
2
Properties=species:S:1:pos:R:3:forces:R:3 energy=-58.27896992243489 pbc="F F F"
Pr       0.00000000       0.00000000       0.00000000       0.00000000       0.00000000       1.29046059
Pr       0.00000000       0.00000000       3.41333333       0.00000000       0.00000000      -1.29046059
2
Properties=species:S:1:pos:R:3:forces:R:3 energy=-58.197868792744 pbc="F F F"
Pr       0.00000000       0.00000000       0.00000000       0.00000000       0.00000000       1.46025920
Pr       0.00000000       0.00000000       3.47212121       0.00000000       0.00000000      -1.46025920
2
Properties=species:S:1:pos:R:3:forces:R:3 energy=-58.10847116914528 pbc="F F F"
Pr       0.00000000       0.00000000       0.00000000       0.00000000       0.00000000       1.56987071
Pr       0.00000000       0.00000000       3.53090909       0.00000000       0.00000000      -1.56987071
2
Properties=species:S:1:pos:R:3:forces:R:3 energy=-58.01464107070392 pbc="F F F"
Pr       0.00000000       0.00000000       0.00000000       0.00000000       0.00000000       1.61082888
Pr       0.00000000       0.00000000       3.58969697       0.00000000       0.00000000      -1.61082888
2
Properties=species:S:1:pos:R:3:forces:R:3 energy=-57.92032644299278 pbc="F F F"
Pr       0.00000000       0.00000000       0.00000000       0.00000000       0.00000000       1.58839393
Pr       0.00000000       0.00000000       3.64848485       0.00000000       0.00000000      -1.58839393
2
Properties=species:S:1:pos:R:3:forces:R:3 energy=-57.82885340425221 pbc="F F F"
Pr       0.00000000       0.00000000       0.00000000       0.00000000       0.00000000       1.51683307
Pr       0.00000000       0.00000000       3.70727273       0.00000000       0.00000000      -1.51683307
2
Properties=species:S:1:pos:R:3:forces:R:3 energy=-57.742590593212334 pbc="F F F"
Pr       0.00000000       0.00000000       0.00000000       0.00000000       0.00000000       1.41423392
Pr       0.00000000       0.00000000       3.76606061       0.00000000       0.00000000      -1.41423392
2
Properties=species:S:1:pos:R:3:forces:R:3 energy=-57.662830872296176 pbc="F F F"
Pr       0.00000000       0.00000000       0.00000000       0.00000000       0.00000000       1.29826772
Pr       0.00000000       0.00000000       3.82484848       0.00000000       0.00000000      -1.29826772
2
Properties=species:S:1:pos:R:3:forces:R:3 energy=-57.58992868523158 pbc="F F F"
Pr       0.00000000       0.00000000       0.00000000       0.00000000       0.00000000       1.18280244
Pr       0.00000000       0.00000000       3.88363636       0.00000000       0.00000000      -1.18280244
2
Properties=species:S:1:pos:R:3:forces:R:3 energy=-57.52359378557284 pbc="F F F"
Pr       0.00000000       0.00000000       0.00000000       0.00000000       0.00000000       1.07569444
Pr       0.00000000       0.00000000       3.94242424       0.00000000       0.00000000      -1.07569444
2
Properties=species:S:1:pos:R:3:forces:R:3 energy=-57.46325741596002 pbc="F F F"
Pr       0.00000000       0.00000000       0.00000000       0.00000000       0.00000000       0.97862381
Pr       0.00000000       0.00000000       4.00121212       0.00000000       0.00000000      -0.97862381
2
Properties=species:S:1:pos:R:3:forces:R:3 energy=-57.40837372939153 pbc="F F F"
Pr       0.00000000       0.00000000       0.00000000       0.00000000       0.00000000       0.88961959
Pr       0.00000000       0.00000000       4.06000000       0.00000000       0.00000000      -0.88961959
2
Properties=species:S:1:pos:R:3:forces:R:3 energy=-57.35854178667669 pbc="F F F"
Pr       0.00000000       0.00000000       0.00000000       0.00000000       0.00000000       0.80675316
Pr       0.00000000       0.00000000       4.11878788       0.00000000       0.00000000      -0.80675316
2
Properties=species:S:1:pos:R:3:forces:R:3 energy=-57.31339116620298 pbc="F F F"
Pr       0.00000000       0.00000000       0.00000000       0.00000000       0.00000000       0.73054123
Pr       0.00000000       0.00000000       4.17757576       0.00000000       0.00000000      -0.73054123
2
Properties=species:S:1:pos:R:3:forces:R:3 energy=-57.27245605675147 pbc="F F F"
Pr       0.00000000       0.00000000       0.00000000       0.00000000       0.00000000       0.66397470
Pr       0.00000000       0.00000000       4.23636364       0.00000000       0.00000000      -0.66397470
2
Properties=species:S:1:pos:R:3:forces:R:3 energy=-57.235057020888526 pbc="F F F"
Pr       0.00000000       0.00000000       0.00000000       0.00000000       0.00000000       0.61102688
Pr       0.00000000       0.00000000       4.29515152       0.00000000       0.00000000      -0.61102688
2
Properties=species:S:1:pos:R:3:forces:R:3 energy=-57.200278097278776 pbc="F F F"
Pr       0.00000000       0.00000000       0.00000000       0.00000000       0.00000000       0.57533038
Pr       0.00000000       0.00000000       4.35393939       0.00000000       0.00000000      -0.57533038
2
Properties=species:S:1:pos:R:3:forces:R:3 energy=-57.16702020011114 pbc="F F F"
Pr       0.00000000       0.00000000       0.00000000       0.00000000       0.00000000       0.55963486
Pr       0.00000000       0.00000000       4.41272727       0.00000000       0.00000000      -0.55963486
2
Properties=species:S:1:pos:R:3:forces:R:3 energy=-57.13404691130517 pbc="F F F"
Pr       0.00000000       0.00000000       0.00000000       0.00000000       0.00000000       0.56586838
Pr       0.00000000       0.00000000       4.47151515       0.00000000       0.00000000      -0.56586838
2
Properties=species:S:1:pos:R:3:forces:R:3 energy=-57.100034074743306 pbc="F F F"
Pr       0.00000000       0.00000000       0.00000000       0.00000000       0.00000000       0.59500563
Pr       0.00000000       0.00000000       4.53030303       0.00000000       0.00000000      -0.59500563
2
Properties=species:S:1:pos:R:3:forces:R:3 energy=-57.06365369426814 pbc="F F F"
Pr       0.00000000       0.00000000       0.00000000       0.00000000       0.00000000       0.64632720
Pr       0.00000000       0.00000000       4.58909091       0.00000000       0.00000000      -0.64632720
2
Properties=species:S:1:pos:R:3:forces:R:3 energy=-57.023680789555385 pbc="F F F"
Pr       0.00000000       0.00000000       0.00000000       0.00000000       0.00000000       0.71614575
Pr       0.00000000       0.00000000       4.64787879       0.00000000       0.00000000      -0.71614575
2
Properties=species:S:1:pos:R:3:forces:R:3 energy=-56.97923749872497 pbc="F F F"
Pr       0.00000000       0.00000000       0.00000000       0.00000000       0.00000000       0.79669648
Pr       0.00000000       0.00000000       4.70666667       0.00000000       0.00000000      -0.79669648
2
Properties=species:S:1:pos:R:3:forces:R:3 energy=-56.93002579388121 pbc="F F F"
Pr       0.00000000       0.00000000       0.00000000       0.00000000       0.00000000       0.87621582
Pr       0.00000000       0.00000000       4.76545455       0.00000000       0.00000000      -0.87621582
2
Properties=species:S:1:pos:R:3:forces:R:3 energy=-56.8765029698583 pbc="F F F"
Pr       0.00000000       0.00000000       0.00000000       0.00000000       0.00000000       0.94101548
Pr       0.00000000       0.00000000       4.82424242       0.00000000       0.00000000      -0.94101548
2
Properties=species:S:1:pos:R:3:forces:R:3 energy=-56.81991215229499 pbc="F F F"
Pr       0.00000000       0.00000000       0.00000000       0.00000000       0.00000000       0.97936624
Pr       0.00000000       0.00000000       4.88303030       0.00000000       0.00000000      -0.97936624
2
Properties=species:S:1:pos:R:3:forces:R:3 energy=-56.76198475441565 pbc="F F F"
Pr       0.00000000       0.00000000       0.00000000       0.00000000       0.00000000       0.98594826
Pr       0.00000000       0.00000000       4.94181818       0.00000000       0.00000000      -0.98594826
2
Properties=species:S:1:pos:R:3:forces:R:3 energy=-56.70453613179144 pbc="F F F"
Pr       0.00000000       0.00000000       0.00000000       0.00000000       0.00000000       0.96458739
Pr       0.00000000       0.00000000       5.00060606       0.00000000       0.00000000      -0.96458739
2
Properties=species:S:1:pos:R:3:forces:R:3 energy=-56.64887811262576 pbc="F F F"
Pr       0.00000000       0.00000000       0.00000000       0.00000000       0.00000000       0.92752087
Pr       0.00000000       0.00000000       5.05939394       0.00000000       0.00000000      -0.92752087
2
Properties=species:S:1:pos:R:3:forces:R:3 energy=-56.59547949603321 pbc="F F F"
Pr       0.00000000       0.00000000       0.00000000       0.00000000       0.00000000       0.89025128
Pr       0.00000000       0.00000000       5.11818182       0.00000000       0.00000000      -0.89025128
2
Properties=species:S:1:pos:R:3:forces:R:3 energy=-56.544000393818486 pbc="F F F"
Pr       0.00000000       0.00000000       0.00000000       0.00000000       0.00000000       0.86331427
Pr       0.00000000       0.00000000       5.17696970       0.00000000       0.00000000      -0.86331427
2
Properties=species:S:1:pos:R:3:forces:R:3 energy=-56.49380721143943 pbc="F F F"
Pr       0.00000000       0.00000000       0.00000000       0.00000000       0.00000000       0.84482110
Pr       0.00000000       0.00000000       5.23575758       0.00000000       0.00000000      -0.84482110
2
Properties=species:S:1:pos:R:3:forces:R:3 energy=-56.444792826926026 pbc="F F F"
Pr       0.00000000       0.00000000       0.00000000       0.00000000       0.00000000       0.82009971
Pr       0.00000000       0.00000000       5.29454545       0.00000000       0.00000000      -0.82009971
2
Properties=species:S:1:pos:R:3:forces:R:3 energy=-56.39777712458986 pbc="F F F"
Pr       0.00000000       0.00000000       0.00000000       0.00000000       0.00000000       0.77627492
Pr       0.00000000       0.00000000       5.35333333       0.00000000       0.00000000      -0.77627492
2
Properties=species:S:1:pos:R:3:forces:R:3 energy=-56.3535876561509 pbc="F F F"
Pr       0.00000000       0.00000000       0.00000000       0.00000000       0.00000000       0.73005795
Pr       0.00000000       0.00000000       5.41212121       0.00000000       0.00000000      -0.73005795
2
Properties=species:S:1:pos:R:3:forces:R:3 energy=-56.31120953157064 pbc="F F F"
Pr       0.00000000       0.00000000       0.00000000       0.00000000       0.00000000       0.71819890
Pr       0.00000000       0.00000000       5.47090909       0.00000000       0.00000000      -0.71819890
2
Properties=species:S:1:pos:R:3:forces:R:3 energy=-56.269036639755186 pbc="F F F"
Pr       0.00000000       0.00000000       0.00000000       0.00000000       0.00000000       0.70986629
Pr       0.00000000       0.00000000       5.52969697       0.00000000       0.00000000      -0.70986629
2
Properties=species:S:1:pos:R:3:forces:R:3 energy=-56.2290639881789 pbc="F F F"
Pr       0.00000000       0.00000000       0.00000000       0.00000000       0.00000000       0.63887405
Pr       0.00000000       0.00000000       5.58848485       0.00000000       0.00000000      -0.63887405
2
Properties=species:S:1:pos:R:3:forces:R:3 energy=-56.194644698906096 pbc="F F F"
Pr       0.00000000       0.00000000       0.00000000       0.00000000       0.00000000       0.53265649
Pr       0.00000000       0.00000000       5.64727273       0.00000000       0.00000000      -0.53265649
2
Properties=species:S:1:pos:R:3:forces:R:3 energy=-56.16569490878555 pbc="F F F"
Pr       0.00000000       0.00000000       0.00000000       0.00000000       0.00000000       0.46217334
Pr       0.00000000       0.00000000       5.70606061       0.00000000       0.00000000      -0.46217334
2
Properties=species:S:1:pos:R:3:forces:R:3 energy=-56.13955589736818 pbc="F F F"
Pr       0.00000000       0.00000000       0.00000000       0.00000000       0.00000000       0.42337978
Pr       0.00000000       0.00000000       5.76484848       0.00000000       0.00000000      -0.42337978
2
Properties=species:S:1:pos:R:3:forces:R:3 energy=-56.11713960855149 pbc="F F F"
Pr       0.00000000       0.00000000       0.00000000       0.00000000       0.00000000       0.32656807
Pr       0.00000000       0.00000000       5.82363636       0.00000000       0.00000000      -0.32656807
2
Properties=species:S:1:pos:R:3:forces:R:3 energy=-56.102322047190064 pbc="F F F"
Pr       0.00000000       0.00000000       0.00000000       0.00000000       0.00000000       0.17658919
Pr       0.00000000       0.00000000       5.88242424       0.00000000       0.00000000      -0.17658919
2
Properties=species:S:1:pos:R:3:forces:R:3 energy=-56.09580167035087 pbc="F F F"
Pr       0.00000000       0.00000000       0.00000000       0.00000000       0.00000000       0.05409970
Pr       0.00000000       0.00000000       5.94121212       0.00000000       0.00000000      -0.05409970
2
Properties=species:S:1:pos:R:3:forces:R:3 energy=-56.09440510607531 pbc="F F F"
Pr       0.00000000       0.00000000       0.00000000       0.00000000       0.00000000       0.00862826
Pr       0.00000000       0.00000000       6.00000000       0.00000000       0.00000000      -0.00862826
