2
Properties=species:S:1:pos:R:3:forces:R:3 energy=29035.74381470143 pbc="F F F"
Sc       0.00000000       0.00000000       0.00000000       0.00000000       0.00000000  -39773.27734375
Sc       0.00000000       0.00000000       0.18000000       0.00000000       0.00000000   39773.27734375
2
Properties=species:S:1:pos:R:3:forces:R:3 energy=27423.80045532643 pbc="F F F"
Sc       0.00000000       0.00000000       0.00000000       0.00000000       0.00000000  -20130.33984375
Sc       0.00000000       0.00000000       0.23878788       0.00000000       0.00000000   20130.33984375
2
Properties=species:S:1:pos:R:3:forces:R:3 energy=26312.79459595143 pbc="F F F"
Sc       0.00000000       0.00000000       0.00000000       0.00000000       0.00000000  -19601.50390625
Sc       0.00000000       0.00000000       0.29757576       0.00000000       0.00000000   19601.50390625
2
Properties=species:S:1:pos:R:3:forces:R:3 energy=24939.57193970143 pbc="F F F"
Sc       0.00000000       0.00000000       0.00000000       0.00000000       0.00000000  -28406.16796875
Sc       0.00000000       0.00000000       0.35636364       0.00000000       0.00000000   28406.16796875
2
Properties=species:S:1:pos:R:3:forces:R:3 energy=22835.70475220222 pbc="F F F"
Sc       0.00000000       0.00000000       0.00000000       0.00000000       0.00000000  -44222.37500000
Sc       0.00000000       0.00000000       0.41515152       0.00000000       0.00000000   44222.37500000
2
Properties=species:S:1:pos:R:3:forces:R:3 energy=19643.99381470301 pbc="F F F"
Sc       0.00000000       0.00000000       0.00000000       0.00000000       0.00000000  -64814.56640625
Sc       0.00000000       0.00000000       0.47393939       0.00000000       0.00000000   64814.56640625
2
Properties=species:S:1:pos:R:3:forces:R:3 energy=15234.403970954596 pbc="F F F"
Sc       0.00000000       0.00000000       0.00000000       0.00000000       0.00000000  -84201.99218750
Sc       0.00000000       0.00000000       0.53272727       0.00000000       0.00000000   84201.99218750
2
Properties=species:S:1:pos:R:3:forces:R:3 energy=9989.877603770263 pbc="F F F"
Sc       0.00000000       0.00000000       0.00000000       0.00000000       0.00000000  -91011.89062500
Sc       0.00000000       0.00000000       0.59151515       0.00000000       0.00000000   91011.89062500
2
Properties=species:S:1:pos:R:3:forces:R:3 energy=4964.808267837515 pbc="F F F"
Sc       0.00000000       0.00000000       0.00000000       0.00000000       0.00000000  -79533.33593750
Sc       0.00000000       0.00000000       0.65030303       0.00000000       0.00000000   79533.33593750
2
Properties=species:S:1:pos:R:3:forces:R:3 energy=1454.5685217508928 pbc="F F F"
Sc       0.00000000       0.00000000       0.00000000       0.00000000       0.00000000  -38549.43359375
Sc       0.00000000       0.00000000       0.70909091       0.00000000       0.00000000   38549.43359375
2
Properties=species:S:1:pos:R:3:forces:R:3 energy=258.5550940276053 pbc="F F F"
Sc       0.00000000       0.00000000       0.00000000       0.00000000       0.00000000   -6618.16845703
Sc       0.00000000       0.00000000       0.76787879       0.00000000       0.00000000    6618.16845703
2
Properties=species:S:1:pos:R:3:forces:R:3 energy=76.65577916307332 pbc="F F F"
Sc       0.00000000       0.00000000       0.00000000       0.00000000       0.00000000   -1457.18115234
Sc       0.00000000       0.00000000       0.82666667       0.00000000       0.00000000    1457.18115234
2
Properties=species:S:1:pos:R:3:forces:R:3 energy=34.00026923730956 pbc="F F F"
Sc       0.00000000       0.00000000       0.00000000       0.00000000       0.00000000     461.75503540
Sc       0.00000000       0.00000000       0.88545455       0.00000000       0.00000000    -461.75503540
2
Properties=species:S:1:pos:R:3:forces:R:3 energy=27.480491971806103 pbc="F F F"
Sc       0.00000000       0.00000000       0.00000000       0.00000000       0.00000000    -170.63134766
Sc       0.00000000       0.00000000       0.94424242       0.00000000       0.00000000     170.63134766
2
Properties=species:S:1:pos:R:3:forces:R:3 energy=19.93925895341147 pbc="F F F"
Sc       0.00000000       0.00000000       0.00000000       0.00000000       0.00000000     -94.56787872
Sc       0.00000000       0.00000000       1.00303030       0.00000000       0.00000000      94.56787872
2
Properties=species:S:1:pos:R:3:forces:R:3 energy=14.822708568043451 pbc="F F F"
Sc       0.00000000       0.00000000       0.00000000       0.00000000       0.00000000     -82.46008301
Sc       0.00000000       0.00000000       1.06181818       0.00000000       0.00000000      82.46008301
2
Properties=species:S:1:pos:R:3:forces:R:3 energy=10.423107664572989 pbc="F F F"
Sc       0.00000000       0.00000000       0.00000000       0.00000000       0.00000000     -67.34462738
Sc       0.00000000       0.00000000       1.12060606       0.00000000       0.00000000      67.34462738
2
Properties=species:S:1:pos:R:3:forces:R:3 energy=6.6673628334451776 pbc="F F F"
Sc       0.00000000       0.00000000       0.00000000       0.00000000       0.00000000     -62.30019379
Sc       0.00000000       0.00000000       1.17939394       0.00000000       0.00000000      62.30019379
2
Properties=species:S:1:pos:R:3:forces:R:3 energy=3.0095622904713206 pbc="F F F"
Sc       0.00000000       0.00000000       0.00000000       0.00000000       0.00000000     -62.20537186
Sc       0.00000000       0.00000000       1.23818182       0.00000000       0.00000000      62.20537186
2
Properties=species:S:1:pos:R:3:forces:R:3 energy=-0.6341638889271477 pbc="F F F"
Sc       0.00000000       0.00000000       0.00000000       0.00000000       0.00000000     -61.52789688
Sc       0.00000000       0.00000000       1.29696970       0.00000000       0.00000000      61.52789688
2
Properties=species:S:1:pos:R:3:forces:R:3 energy=-4.167640506211872 pbc="F F F"
Sc       0.00000000       0.00000000       0.00000000       0.00000000       0.00000000     -57.85070419
Sc       0.00000000       0.00000000       1.35575758       0.00000000       0.00000000      57.85070419
2
Properties=species:S:1:pos:R:3:forces:R:3 energy=-7.299989732026152 pbc="F F F"
Sc       0.00000000       0.00000000       0.00000000       0.00000000       0.00000000     -47.41023636
Sc       0.00000000       0.00000000       1.41454545       0.00000000       0.00000000      47.41023636
2
Properties=species:S:1:pos:R:3:forces:R:3 energy=-9.6265127073502 pbc="F F F"
Sc       0.00000000       0.00000000       0.00000000       0.00000000       0.00000000     -31.38584900
Sc       0.00000000       0.00000000       1.47333333       0.00000000       0.00000000      31.38584900
2
Properties=species:S:1:pos:R:3:forces:R:3 energy=-11.036542670818978 pbc="F F F"
Sc       0.00000000       0.00000000       0.00000000       0.00000000       0.00000000     -17.53651047
Sc       0.00000000       0.00000000       1.53212121       0.00000000       0.00000000      17.53651047
2
Properties=species:S:1:pos:R:3:forces:R:3 energy=-11.81553387981725 pbc="F F F"
Sc       0.00000000       0.00000000       0.00000000       0.00000000       0.00000000      -9.96384239
Sc       0.00000000       0.00000000       1.59090909       0.00000000       0.00000000       9.96384239
2
Properties=species:S:1:pos:R:3:forces:R:3 energy=-12.304706222920348 pbc="F F F"
Sc       0.00000000       0.00000000       0.00000000       0.00000000       0.00000000      -7.35614824
Sc       0.00000000       0.00000000       1.64969697       0.00000000       0.00000000       7.35614824
2
Properties=species:S:1:pos:R:3:forces:R:3 energy=-12.74684704543418 pbc="F F F"
Sc       0.00000000       0.00000000       0.00000000       0.00000000       0.00000000      -8.10353565
Sc       0.00000000       0.00000000       1.70848485       0.00000000       0.00000000       8.10353565
2
Properties=species:S:1:pos:R:3:forces:R:3 energy=-13.278858189364254 pbc="F F F"
Sc       0.00000000       0.00000000       0.00000000       0.00000000       0.00000000      -9.91835499
Sc       0.00000000       0.00000000       1.76727273       0.00000000       0.00000000       9.91835499
2
Properties=species:S:1:pos:R:3:forces:R:3 energy=-13.883380847084895 pbc="F F F"
Sc       0.00000000       0.00000000       0.00000000       0.00000000       0.00000000     -10.33295822
Sc       0.00000000       0.00000000       1.82606061       0.00000000       0.00000000      10.33295822
2
Properties=species:S:1:pos:R:3:forces:R:3 energy=-14.465910663003786 pbc="F F F"
Sc       0.00000000       0.00000000       0.00000000       0.00000000       0.00000000      -9.36408329
Sc       0.00000000       0.00000000       1.88484848       0.00000000       0.00000000       9.36408329
2
Properties=species:S:1:pos:R:3:forces:R:3 energy=-14.981112813222365 pbc="F F F"
Sc       0.00000000       0.00000000       0.00000000       0.00000000       0.00000000      -8.18629360
Sc       0.00000000       0.00000000       1.94363636       0.00000000       0.00000000       8.18629360
2
Properties=species:S:1:pos:R:3:forces:R:3 energy=-15.430431172535007 pbc="F F F"
Sc       0.00000000       0.00000000       0.00000000       0.00000000       0.00000000      -7.09282207
Sc       0.00000000       0.00000000       2.00242424       0.00000000       0.00000000       7.09282207
2
Properties=species:S:1:pos:R:3:forces:R:3 energy=-15.811988967699774 pbc="F F F"
Sc       0.00000000       0.00000000       0.00000000       0.00000000       0.00000000      -5.85998964
Sc       0.00000000       0.00000000       2.06121212       0.00000000       0.00000000       5.85998964
2
Properties=species:S:1:pos:R:3:forces:R:3 energy=-16.118755870839188 pbc="F F F"
Sc       0.00000000       0.00000000       0.00000000       0.00000000       0.00000000      -4.59980106
Sc       0.00000000       0.00000000       2.12000000       0.00000000       0.00000000       4.59980106
2
Properties=species:S:1:pos:R:3:forces:R:3 energy=-16.35815364078862 pbc="F F F"
Sc       0.00000000       0.00000000       0.00000000       0.00000000       0.00000000      -3.60043764
Sc       0.00000000       0.00000000       2.17878788       0.00000000       0.00000000       3.60043764
2
Properties=species:S:1:pos:R:3:forces:R:3 energy=-16.547980290922347 pbc="F F F"
Sc       0.00000000       0.00000000       0.00000000       0.00000000       0.00000000      -2.89608598
Sc       0.00000000       0.00000000       2.23757576       0.00000000       0.00000000       2.89608598
2
Properties=species:S:1:pos:R:3:forces:R:3 energy=-16.70161486896414 pbc="F F F"
Sc       0.00000000       0.00000000       0.00000000       0.00000000       0.00000000      -2.34449244
Sc       0.00000000       0.00000000       2.29636364       0.00000000       0.00000000       2.34449244
2
Properties=species:S:1:pos:R:3:forces:R:3 energy=-16.82444145706909 pbc="F F F"
Sc       0.00000000       0.00000000       0.00000000       0.00000000       0.00000000      -1.83597624
Sc       0.00000000       0.00000000       2.35515152       0.00000000       0.00000000       1.83597624
2
Properties=species:S:1:pos:R:3:forces:R:3 energy=-16.917276997266814 pbc="F F F"
Sc       0.00000000       0.00000000       0.00000000       0.00000000       0.00000000      -1.31726778
Sc       0.00000000       0.00000000       2.41393939       0.00000000       0.00000000       1.31726778
2
Properties=species:S:1:pos:R:3:forces:R:3 energy=-16.978391637749553 pbc="F F F"
Sc       0.00000000       0.00000000       0.00000000       0.00000000       0.00000000      -0.75216579
Sc       0.00000000       0.00000000       2.47272727       0.00000000       0.00000000       0.75216579
2
Properties=species:S:1:pos:R:3:forces:R:3 energy=-17.00463670292934 pbc="F F F"
Sc       0.00000000       0.00000000       0.00000000       0.00000000       0.00000000      -0.13462849
Sc       0.00000000       0.00000000       2.53151515       0.00000000       0.00000000       0.13462849
2
Properties=species:S:1:pos:R:3:forces:R:3 energy=-16.994260899078174 pbc="F F F"
Sc       0.00000000       0.00000000       0.00000000       0.00000000       0.00000000       0.47957915
Sc       0.00000000       0.00000000       2.59030303       0.00000000       0.00000000      -0.47957915
2
Properties=species:S:1:pos:R:3:forces:R:3 energy=-16.950121901047797 pbc="F F F"
Sc       0.00000000       0.00000000       0.00000000       0.00000000       0.00000000       0.99981272
Sc       0.00000000       0.00000000       2.64909091       0.00000000       0.00000000      -0.99981272
2
Properties=species:S:1:pos:R:3:forces:R:3 energy=-16.87963892245187 pbc="F F F"
Sc       0.00000000       0.00000000       0.00000000       0.00000000       0.00000000       1.37289298
Sc       0.00000000       0.00000000       2.70787879       0.00000000       0.00000000      -1.37289298
2
Properties=species:S:1:pos:R:3:forces:R:3 energy=-16.791351484289983 pbc="F F F"
Sc       0.00000000       0.00000000       0.00000000       0.00000000       0.00000000       1.61152053
Sc       0.00000000       0.00000000       2.76666667       0.00000000       0.00000000      -1.61152053
2
Properties=species:S:1:pos:R:3:forces:R:3 energy=-16.692061841437038 pbc="F F F"
Sc       0.00000000       0.00000000       0.00000000       0.00000000       0.00000000       1.75217927
Sc       0.00000000       0.00000000       2.82545455       0.00000000       0.00000000      -1.75217927
2
Properties=species:S:1:pos:R:3:forces:R:3 energy=-16.586986150543037 pbc="F F F"
Sc       0.00000000       0.00000000       0.00000000       0.00000000       0.00000000       1.80784142
Sc       0.00000000       0.00000000       2.88424242       0.00000000       0.00000000      -1.80784142
2
Properties=species:S:1:pos:R:3:forces:R:3 energy=-16.48138300885009 pbc="F F F"
Sc       0.00000000       0.00000000       0.00000000       0.00000000       0.00000000       1.76797426
Sc       0.00000000       0.00000000       2.94303030       0.00000000       0.00000000      -1.76797426
2
Properties=species:S:1:pos:R:3:forces:R:3 energy=-16.381047284827424 pbc="F F F"
Sc       0.00000000       0.00000000       0.00000000       0.00000000       0.00000000       1.63066733
Sc       0.00000000       0.00000000       3.00181818       0.00000000       0.00000000      -1.63066733
2
Properties=species:S:1:pos:R:3:forces:R:3 energy=-16.291029361777035 pbc="F F F"
Sc       0.00000000       0.00000000       0.00000000       0.00000000       0.00000000       1.42406726
Sc       0.00000000       0.00000000       3.06060606       0.00000000       0.00000000      -1.42406726
2
Properties=species:S:1:pos:R:3:forces:R:3 energy=-16.21396939458779 pbc="F F F"
Sc       0.00000000       0.00000000       0.00000000       0.00000000       0.00000000       1.19917405
Sc       0.00000000       0.00000000       3.11939394       0.00000000       0.00000000      -1.19917405
2
Properties=species:S:1:pos:R:3:forces:R:3 energy=-16.149358817675008 pbc="F F F"
Sc       0.00000000       0.00000000       0.00000000       0.00000000       0.00000000       1.00817943
Sc       0.00000000       0.00000000       3.17818182       0.00000000       0.00000000      -1.00817943
2
Properties=species:S:1:pos:R:3:forces:R:3 energy=-16.09408941489347 pbc="F F F"
Sc       0.00000000       0.00000000       0.00000000       0.00000000       0.00000000       0.88462800
Sc       0.00000000       0.00000000       3.23696970       0.00000000       0.00000000      -0.88462800
2
Properties=species:S:1:pos:R:3:forces:R:3 energy=-16.043957747418055 pbc="F F F"
Sc       0.00000000       0.00000000       0.00000000       0.00000000       0.00000000       0.83122623
Sc       0.00000000       0.00000000       3.29575758       0.00000000       0.00000000      -0.83122623
2
Properties=species:S:1:pos:R:3:forces:R:3 energy=-15.995403945490779 pbc="F F F"
Sc       0.00000000       0.00000000       0.00000000       0.00000000       0.00000000       0.82641077
Sc       0.00000000       0.00000000       3.35454545       0.00000000       0.00000000      -0.82641077
2
Properties=species:S:1:pos:R:3:forces:R:3 energy=-15.946350257365442 pbc="F F F"
Sc       0.00000000       0.00000000       0.00000000       0.00000000       0.00000000       0.84439093
Sc       0.00000000       0.00000000       3.41333333       0.00000000       0.00000000      -0.84439093
2
Properties=species:S:1:pos:R:3:forces:R:3 energy=-15.896050206525986 pbc="F F F"
Sc       0.00000000       0.00000000       0.00000000       0.00000000       0.00000000       0.86640108
Sc       0.00000000       0.00000000       3.47212121       0.00000000       0.00000000      -0.86640108
2
Properties=species:S:1:pos:R:3:forces:R:3 energy=-15.844602156915206 pbc="F F F"
Sc       0.00000000       0.00000000       0.00000000       0.00000000       0.00000000       0.88260877
Sc       0.00000000       0.00000000       3.53090909       0.00000000       0.00000000      -0.88260877
2
Properties=species:S:1:pos:R:3:forces:R:3 energy=-15.792420763419358 pbc="F F F"
Sc       0.00000000       0.00000000       0.00000000       0.00000000       0.00000000       0.89167184
Sc       0.00000000       0.00000000       3.58969697       0.00000000       0.00000000      -0.89167184
2
Properties=species:S:1:pos:R:3:forces:R:3 energy=-15.739835782332035 pbc="F F F"
Sc       0.00000000       0.00000000       0.00000000       0.00000000       0.00000000       0.89691192
Sc       0.00000000       0.00000000       3.64848485       0.00000000       0.00000000      -0.89691192
2
Properties=species:S:1:pos:R:3:forces:R:3 energy=-15.687003182060469 pbc="F F F"
Sc       0.00000000       0.00000000       0.00000000       0.00000000       0.00000000       0.90004092
Sc       0.00000000       0.00000000       3.70727273       0.00000000       0.00000000      -0.90004092
2
Properties=species:S:1:pos:R:3:forces:R:3 energy=-15.634112603290502 pbc="F F F"
Sc       0.00000000       0.00000000       0.00000000       0.00000000       0.00000000       0.89800340
Sc       0.00000000       0.00000000       3.76606061       0.00000000       0.00000000      -0.89800340
2
Properties=species:S:1:pos:R:3:forces:R:3 energy=-15.581620874706925 pbc="F F F"
Sc       0.00000000       0.00000000       0.00000000       0.00000000       0.00000000       0.88582152
Sc       0.00000000       0.00000000       3.82484848       0.00000000       0.00000000      -0.88582152
2
Properties=species:S:1:pos:R:3:forces:R:3 energy=-15.530205431360066 pbc="F F F"
Sc       0.00000000       0.00000000       0.00000000       0.00000000       0.00000000       0.86138022
Sc       0.00000000       0.00000000       3.88363636       0.00000000       0.00000000      -0.86138022
2
Properties=species:S:1:pos:R:3:forces:R:3 energy=-15.4805421622432 pbc="F F F"
Sc       0.00000000       0.00000000       0.00000000       0.00000000       0.00000000       0.82685846
Sc       0.00000000       0.00000000       3.94242424       0.00000000       0.00000000      -0.82685846
2
Properties=species:S:1:pos:R:3:forces:R:3 energy=-15.433102689480023 pbc="F F F"
Sc       0.00000000       0.00000000       0.00000000       0.00000000       0.00000000       0.78642261
Sc       0.00000000       0.00000000       4.00121212       0.00000000       0.00000000      -0.78642261
2
Properties=species:S:1:pos:R:3:forces:R:3 energy=-15.38812392994209 pbc="F F F"
Sc       0.00000000       0.00000000       0.00000000       0.00000000       0.00000000       0.74359387
Sc       0.00000000       0.00000000       4.06000000       0.00000000       0.00000000      -0.74359387
2
Properties=species:S:1:pos:R:3:forces:R:3 energy=-15.345678771686353 pbc="F F F"
Sc       0.00000000       0.00000000       0.00000000       0.00000000       0.00000000       0.70045567
Sc       0.00000000       0.00000000       4.11878788       0.00000000       0.00000000      -0.70045567
2
Properties=species:S:1:pos:R:3:forces:R:3 energy=-15.305750444712737 pbc="F F F"
Sc       0.00000000       0.00000000       0.00000000       0.00000000       0.00000000       0.65817750
Sc       0.00000000       0.00000000       4.17757576       0.00000000       0.00000000      -0.65817750
2
Properties=species:S:1:pos:R:3:forces:R:3 energy=-15.26826019335842 pbc="F F F"
Sc       0.00000000       0.00000000       0.00000000       0.00000000       0.00000000       0.61757404
Sc       0.00000000       0.00000000       4.23636364       0.00000000       0.00000000      -0.61757404
2
Properties=species:S:1:pos:R:3:forces:R:3 energy=-15.233093060350422 pbc="F F F"
Sc       0.00000000       0.00000000       0.00000000       0.00000000       0.00000000       0.57921118
Sc       0.00000000       0.00000000       4.29515152       0.00000000       0.00000000      -0.57921118
2
Properties=species:S:1:pos:R:3:forces:R:3 energy=-15.200110278236076 pbc="F F F"
Sc       0.00000000       0.00000000       0.00000000       0.00000000       0.00000000       0.54332680
Sc       0.00000000       0.00000000       4.35393939       0.00000000       0.00000000      -0.54332680
2
Properties=species:S:1:pos:R:3:forces:R:3 energy=-15.169165491349872 pbc="F F F"
Sc       0.00000000       0.00000000       0.00000000       0.00000000       0.00000000       0.50983715
Sc       0.00000000       0.00000000       4.41272727       0.00000000       0.00000000      -0.50983715
2
Properties=species:S:1:pos:R:3:forces:R:3 energy=-15.14012287879329 pbc="F F F"
Sc       0.00000000       0.00000000       0.00000000       0.00000000       0.00000000       0.47852573
Sc       0.00000000       0.00000000       4.47151515       0.00000000       0.00000000      -0.47852573
2
Properties=species:S:1:pos:R:3:forces:R:3 energy=-15.112862892319809 pbc="F F F"
Sc       0.00000000       0.00000000       0.00000000       0.00000000       0.00000000       0.44920555
Sc       0.00000000       0.00000000       4.53030303       0.00000000       0.00000000      -0.44920555
2
Properties=species:S:1:pos:R:3:forces:R:3 energy=-15.087270821746575 pbc="F F F"
Sc       0.00000000       0.00000000       0.00000000       0.00000000       0.00000000       0.42178911
Sc       0.00000000       0.00000000       4.58909091       0.00000000       0.00000000      -0.42178911
2
Properties=species:S:1:pos:R:3:forces:R:3 energy=-15.063234887605777 pbc="F F F"
Sc       0.00000000       0.00000000       0.00000000       0.00000000       0.00000000       0.39622980
Sc       0.00000000       0.00000000       4.64787879       0.00000000       0.00000000      -0.39622980
2
Properties=species:S:1:pos:R:3:forces:R:3 energy=-15.04065006851319 pbc="F F F"
Sc       0.00000000       0.00000000       0.00000000       0.00000000       0.00000000       0.37235638
Sc       0.00000000       0.00000000       4.70666667       0.00000000       0.00000000      -0.37235638
2
Properties=species:S:1:pos:R:3:forces:R:3 energy=-15.019428597921303 pbc="F F F"
Sc       0.00000000       0.00000000       0.00000000       0.00000000       0.00000000       0.34978959
Sc       0.00000000       0.00000000       4.76545455       0.00000000       0.00000000      -0.34978959
2
Properties=species:S:1:pos:R:3:forces:R:3 energy=-14.99950761568861 pbc="F F F"
Sc       0.00000000       0.00000000       0.00000000       0.00000000       0.00000000       0.32799175
Sc       0.00000000       0.00000000       4.82424242       0.00000000       0.00000000      -0.32799175
2
Properties=species:S:1:pos:R:3:forces:R:3 energy=-14.980858682648018 pbc="F F F"
Sc       0.00000000       0.00000000       0.00000000       0.00000000       0.00000000       0.30655289
Sc       0.00000000       0.00000000       4.88303030       0.00000000       0.00000000      -0.30655289
2
Properties=species:S:1:pos:R:3:forces:R:3 energy=-14.963456328361328 pbc="F F F"
Sc       0.00000000       0.00000000       0.00000000       0.00000000       0.00000000       0.28560269
Sc       0.00000000       0.00000000       4.94181818       0.00000000       0.00000000      -0.28560269
2
Properties=species:S:1:pos:R:3:forces:R:3 energy=-14.947249459896693 pbc="F F F"
Sc       0.00000000       0.00000000       0.00000000       0.00000000       0.00000000       0.26611286
Sc       0.00000000       0.00000000       5.00060606       0.00000000       0.00000000      -0.26611286
2
Properties=species:S:1:pos:R:3:forces:R:3 energy=-14.932106036046964 pbc="F F F"
Sc       0.00000000       0.00000000       0.00000000       0.00000000       0.00000000       0.24973178
Sc       0.00000000       0.00000000       5.05939394       0.00000000       0.00000000      -0.24973178
2
Properties=species:S:1:pos:R:3:forces:R:3 energy=-14.917793992259453 pbc="F F F"
Sc       0.00000000       0.00000000       0.00000000       0.00000000       0.00000000       0.23804718
Sc       0.00000000       0.00000000       5.11818182       0.00000000       0.00000000      -0.23804718
2
Properties=species:S:1:pos:R:3:forces:R:3 energy=-14.904020352370294 pbc="F F F"
Sc       0.00000000       0.00000000       0.00000000       0.00000000       0.00000000       0.23128596
Sc       0.00000000       0.00000000       5.17696970       0.00000000       0.00000000      -0.23128596
2
Properties=species:S:1:pos:R:3:forces:R:3 energy=-14.890550415719222 pbc="F F F"
Sc       0.00000000       0.00000000       0.00000000       0.00000000       0.00000000       0.22700766
Sc       0.00000000       0.00000000       5.23575758       0.00000000       0.00000000      -0.22700766
2
Properties=species:S:1:pos:R:3:forces:R:3 energy=-14.877384205905056 pbc="F F F"
Sc       0.00000000       0.00000000       0.00000000       0.00000000       0.00000000       0.21997474
Sc       0.00000000       0.00000000       5.29454545       0.00000000       0.00000000      -0.21997474
2
Properties=species:S:1:pos:R:3:forces:R:3 energy=-14.864829911627606 pbc="F F F"
Sc       0.00000000       0.00000000       0.00000000       0.00000000       0.00000000       0.20595977
Sc       0.00000000       0.00000000       5.35333333       0.00000000       0.00000000      -0.20595977
2
Properties=species:S:1:pos:R:3:forces:R:3 energy=-14.853189099719447 pbc="F F F"
Sc       0.00000000       0.00000000       0.00000000       0.00000000       0.00000000       0.19136320
Sc       0.00000000       0.00000000       5.41212121       0.00000000       0.00000000      -0.19136320
2
Properties=species:S:1:pos:R:3:forces:R:3 energy=-14.841990978026285 pbc="F F F"
Sc       0.00000000       0.00000000       0.00000000       0.00000000       0.00000000       0.19319913
Sc       0.00000000       0.00000000       5.47090909       0.00000000       0.00000000      -0.19319913
2
Properties=species:S:1:pos:R:3:forces:R:3 energy=-14.83025936719475 pbc="F F F"
Sc       0.00000000       0.00000000       0.00000000       0.00000000       0.00000000       0.20460759
Sc       0.00000000       0.00000000       5.52969697       0.00000000       0.00000000      -0.20460759
2
Properties=species:S:1:pos:R:3:forces:R:3 energy=-14.818395253772978 pbc="F F F"
Sc       0.00000000       0.00000000       0.00000000       0.00000000       0.00000000       0.19422705
Sc       0.00000000       0.00000000       5.58848485       0.00000000       0.00000000      -0.19422705
2
Properties=species:S:1:pos:R:3:forces:R:3 energy=-14.807783873224448 pbc="F F F"
Sc       0.00000000       0.00000000       0.00000000       0.00000000       0.00000000       0.16647045
Sc       0.00000000       0.00000000       5.64727273       0.00000000       0.00000000      -0.16647045
2
Properties=species:S:1:pos:R:3:forces:R:3 energy=-14.79851729131087 pbc="F F F"
Sc       0.00000000       0.00000000       0.00000000       0.00000000       0.00000000       0.15357351
Sc       0.00000000       0.00000000       5.70606061       0.00000000       0.00000000      -0.15357351
2
Properties=species:S:1:pos:R:3:forces:R:3 energy=-14.789279019003379 pbc="F F F"
Sc       0.00000000       0.00000000       0.00000000       0.00000000       0.00000000       0.16045712
Sc       0.00000000       0.00000000       5.76484848       0.00000000       0.00000000      -0.16045712
2
Properties=species:S:1:pos:R:3:forces:R:3 energy=-14.78016973997858 pbc="F F F"
Sc       0.00000000       0.00000000       0.00000000       0.00000000       0.00000000       0.14235210
Sc       0.00000000       0.00000000       5.82363636       0.00000000       0.00000000      -0.14235210
2
Properties=species:S:1:pos:R:3:forces:R:3 energy=-14.773349082748332 pbc="F F F"
Sc       0.00000000       0.00000000       0.00000000       0.00000000       0.00000000       0.08644919
Sc       0.00000000       0.00000000       5.88242424       0.00000000       0.00000000      -0.08644919
2
Properties=species:S:1:pos:R:3:forces:R:3 energy=-14.769973381933239 pbc="F F F"
Sc       0.00000000       0.00000000       0.00000000       0.00000000       0.00000000       0.03143771
Sc       0.00000000       0.00000000       5.94121212       0.00000000       0.00000000      -0.03143771
2
Properties=species:S:1:pos:R:3:forces:R:3 energy=-14.768974011959857 pbc="F F F"
Sc       0.00000000       0.00000000       0.00000000       0.00000000       0.00000000       0.00975875
Sc       0.00000000       0.00000000       6.00000000       0.00000000       0.00000000      -0.00975875
