2
Properties=species:S:1:pos:R:3:forces:R:3 energy=397702.2687573148 pbc="F F F"
Ta       0.00000000       0.00000000       0.00000000       0.00000000       0.00000000 -341095.18750000
Ta       0.00000000       0.00000000       0.18000000       0.00000000       0.00000000  341095.18750000
2
Properties=species:S:1:pos:R:3:forces:R:3 energy=379868.6437573148 pbc="F F F"
Ta       0.00000000       0.00000000       0.00000000       0.00000000       0.00000000 -318248.12500000
Ta       0.00000000       0.00000000       0.23878788       0.00000000       0.00000000  318248.12500000
2
Properties=species:S:1:pos:R:3:forces:R:3 energy=359953.7062573148 pbc="F F F"
Ta       0.00000000       0.00000000       0.00000000       0.00000000       0.00000000 -371522.09375000
Ta       0.00000000       0.00000000       0.29757576       0.00000000       0.00000000  371522.09375000
2
Properties=species:S:1:pos:R:3:forces:R:3 energy=331444.2375073148 pbc="F F F"
Ta       0.00000000       0.00000000       0.00000000       0.00000000       0.00000000 -613271.50000000
Ta       0.00000000       0.00000000       0.35636364       0.00000000       0.00000000  613271.50000000
2
Properties=species:S:1:pos:R:3:forces:R:3 energy=286745.3000073148 pbc="F F F"
Ta       0.00000000       0.00000000       0.00000000       0.00000000       0.00000000 -909925.31250000
Ta       0.00000000       0.00000000       0.41515152       0.00000000       0.00000000  909925.31250000
2
Properties=species:S:1:pos:R:3:forces:R:3 energy=225389.8000073148 pbc="F F F"
Ta       0.00000000       0.00000000       0.00000000       0.00000000       0.00000000 -1157876.25000000
Ta       0.00000000       0.00000000       0.47393939       0.00000000       0.00000000 1157876.25000000
2
Properties=species:S:1:pos:R:3:forces:R:3 energy=154281.3625073164 pbc="F F F"
Ta       0.00000000       0.00000000       0.00000000       0.00000000       0.00000000 -1219594.12500000
Ta       0.00000000       0.00000000       0.53272727       0.00000000       0.00000000 1219594.12500000
2
Properties=species:S:1:pos:R:3:forces:R:3 energy=87423.59688231797 pbc="F F F"
Ta       0.00000000       0.00000000       0.00000000       0.00000000       0.00000000 -1010586.06250000
Ta       0.00000000       0.00000000       0.59151515       0.00000000       0.00000000 1010586.06250000
2
Properties=species:S:1:pos:R:3:forces:R:3 energy=39220.62422607114 pbc="F F F"
Ta       0.00000000       0.00000000       0.00000000       0.00000000       0.00000000 -615980.43750000
Ta       0.00000000       0.00000000       0.65030303       0.00000000       0.00000000  615980.43750000
2
Properties=species:S:1:pos:R:3:forces:R:3 energy=13994.4093823251 pbc="F F F"
Ta       0.00000000       0.00000000       0.00000000       0.00000000       0.00000000 -268901.50000000
Ta       0.00000000       0.00000000       0.70909091       0.00000000       0.00000000  268901.50000000
2
Properties=species:S:1:pos:R:3:forces:R:3 energy=4500.521687019728 pbc="F F F"
Ta       0.00000000       0.00000000       0.00000000       0.00000000       0.00000000  -52984.55078125
Ta       0.00000000       0.00000000       0.76787879       0.00000000       0.00000000   52984.55078125
2
Properties=species:S:1:pos:R:3:forces:R:3 energy=726.1143383964188 pbc="F F F"
Ta       0.00000000       0.00000000       0.00000000       0.00000000       0.00000000  -39935.57812500
Ta       0.00000000       0.00000000       0.82666667       0.00000000       0.00000000   39935.57812500
2
Properties=species:S:1:pos:R:3:forces:R:3 energy=-68.64340542556718 pbc="F F F"
Ta       0.00000000       0.00000000       0.00000000       0.00000000       0.00000000   -8389.37597656
Ta       0.00000000       0.00000000       0.88545455       0.00000000       0.00000000    8389.37597656
2
Properties=species:S:1:pos:R:3:forces:R:3 energy=-160.32537409473315 pbc="F F F"
Ta       0.00000000       0.00000000       0.00000000       0.00000000       0.00000000    -919.84814453
Ta       0.00000000       0.00000000       0.94424242       0.00000000       0.00000000     919.84814453
2
Properties=species:S:1:pos:R:3:forces:R:3 energy=-200.6962389359707 pbc="F F F"
Ta       0.00000000       0.00000000       0.00000000       0.00000000       0.00000000    -263.72286987
Ta       0.00000000       0.00000000       1.00303030       0.00000000       0.00000000     263.72286987
2
Properties=species:S:1:pos:R:3:forces:R:3 energy=-195.53069629779364 pbc="F F F"
Ta       0.00000000       0.00000000       0.00000000       0.00000000       0.00000000     287.91510010
Ta       0.00000000       0.00000000       1.06181818       0.00000000       0.00000000    -287.91510010
2
Properties=species:S:1:pos:R:3:forces:R:3 energy=-170.8469651703828 pbc="F F F"
Ta       0.00000000       0.00000000       0.00000000       0.00000000       0.00000000     514.99291992
Ta       0.00000000       0.00000000       1.12060606       0.00000000       0.00000000    -514.99291992
2
Properties=species:S:1:pos:R:3:forces:R:3 energy=-141.01885536739934 pbc="F F F"
Ta       0.00000000       0.00000000       0.00000000       0.00000000       0.00000000     459.79855347
Ta       0.00000000       0.00000000       1.17939394       0.00000000       0.00000000    -459.79855347
2
Properties=species:S:1:pos:R:3:forces:R:3 energy=-118.62391968029362 pbc="F F F"
Ta       0.00000000       0.00000000       0.00000000       0.00000000       0.00000000     304.73632812
Ta       0.00000000       0.00000000       1.23818182       0.00000000       0.00000000    -304.73632812
2
Properties=species:S:1:pos:R:3:forces:R:3 energy=-104.10215291553371 pbc="F F F"
Ta       0.00000000       0.00000000       0.00000000       0.00000000       0.00000000     200.26228333
Ta       0.00000000       0.00000000       1.29696970       0.00000000       0.00000000    -200.26228333
2
Properties=species:S:1:pos:R:3:forces:R:3 energy=-94.51127906976714 pbc="F F F"
Ta       0.00000000       0.00000000       0.00000000       0.00000000       0.00000000     118.37113953
Ta       0.00000000       0.00000000       1.35575758       0.00000000       0.00000000    -118.37113953
2
Properties=species:S:1:pos:R:3:forces:R:3 energy=-90.30839805200104 pbc="F F F"
Ta       0.00000000       0.00000000       0.00000000       0.00000000       0.00000000      38.90613556
Ta       0.00000000       0.00000000       1.41454545       0.00000000       0.00000000     -38.90613556
2
Properties=species:S:1:pos:R:3:forces:R:3 energy=-88.32618197266449 pbc="F F F"
Ta       0.00000000       0.00000000       0.00000000       0.00000000       0.00000000      38.02729416
Ta       0.00000000       0.00000000       1.47333333       0.00000000       0.00000000     -38.02729416
2
Properties=species:S:1:pos:R:3:forces:R:3 energy=-85.69391091892173 pbc="F F F"
Ta       0.00000000       0.00000000       0.00000000       0.00000000       0.00000000      44.80536652
Ta       0.00000000       0.00000000       1.53212121       0.00000000       0.00000000     -44.80536652
2
Properties=species:S:1:pos:R:3:forces:R:3 energy=-83.76561930192958 pbc="F F F"
Ta       0.00000000       0.00000000       0.00000000       0.00000000       0.00000000      18.79544449
Ta       0.00000000       0.00000000       1.59090909       0.00000000       0.00000000     -18.79544449
2
Properties=species:S:1:pos:R:3:forces:R:3 energy=-83.36914220073608 pbc="F F F"
Ta       0.00000000       0.00000000       0.00000000       0.00000000       0.00000000      -2.65088940
Ta       0.00000000       0.00000000       1.64969697       0.00000000       0.00000000       2.65088940
2
Properties=species:S:1:pos:R:3:forces:R:3 energy=-83.73336906800196 pbc="F F F"
Ta       0.00000000       0.00000000       0.00000000       0.00000000       0.00000000      -7.39798546
Ta       0.00000000       0.00000000       1.70848485       0.00000000       0.00000000       7.39798546
2
Properties=species:S:1:pos:R:3:forces:R:3 energy=-84.09304111308082 pbc="F F F"
Ta       0.00000000       0.00000000       0.00000000       0.00000000       0.00000000      -4.54011059
Ta       0.00000000       0.00000000       1.76727273       0.00000000       0.00000000       4.54011059
2
Properties=species:S:1:pos:R:3:forces:R:3 energy=-84.29145055487777 pbc="F F F"
Ta       0.00000000       0.00000000       0.00000000       0.00000000       0.00000000      -2.66620016
Ta       0.00000000       0.00000000       1.82606061       0.00000000       0.00000000       2.66620016
2
Properties=species:S:1:pos:R:3:forces:R:3 energy=-84.45948726933985 pbc="F F F"
Ta       0.00000000       0.00000000       0.00000000       0.00000000       0.00000000      -3.38764167
Ta       0.00000000       0.00000000       1.88484848       0.00000000       0.00000000       3.38764167
2
Properties=species:S:1:pos:R:3:forces:R:3 energy=-84.70493172884916 pbc="F F F"
Ta       0.00000000       0.00000000       0.00000000       0.00000000       0.00000000      -4.87638760
Ta       0.00000000       0.00000000       1.94363636       0.00000000       0.00000000       4.87638760
2
Properties=species:S:1:pos:R:3:forces:R:3 energy=-85.00684887322802 pbc="F F F"
Ta       0.00000000       0.00000000       0.00000000       0.00000000       0.00000000      -5.12431383
Ta       0.00000000       0.00000000       2.00242424       0.00000000       0.00000000       5.12431383
2
Properties=species:S:1:pos:R:3:forces:R:3 energy=-85.28132305063194 pbc="F F F"
Ta       0.00000000       0.00000000       0.00000000       0.00000000       0.00000000      -4.06827259
Ta       0.00000000       0.00000000       2.06121212       0.00000000       0.00000000       4.06827259
2
Properties=species:S:1:pos:R:3:forces:R:3 energy=-85.47682539850503 pbc="F F F"
Ta       0.00000000       0.00000000       0.00000000       0.00000000       0.00000000      -2.56884241
Ta       0.00000000       0.00000000       2.12000000       0.00000000       0.00000000       2.56884241
2
Properties=species:S:1:pos:R:3:forces:R:3 energy=-85.58529183848097 pbc="F F F"
Ta       0.00000000       0.00000000       0.00000000       0.00000000       0.00000000      -1.15432882
Ta       0.00000000       0.00000000       2.17878788       0.00000000       0.00000000       1.15432882
2
Properties=species:S:1:pos:R:3:forces:R:3 energy=-85.61683165885458 pbc="F F F"
Ta       0.00000000       0.00000000       0.00000000       0.00000000       0.00000000       0.04553514
Ta       0.00000000       0.00000000       2.23757576       0.00000000       0.00000000      -0.04553514
2
Properties=species:S:1:pos:R:3:forces:R:3 energy=-85.58388131282547 pbc="F F F"
Ta       0.00000000       0.00000000       0.00000000       0.00000000       0.00000000       1.04379880
Ta       0.00000000       0.00000000       2.29636364       0.00000000       0.00000000      -1.04379880
2
Properties=species:S:1:pos:R:3:forces:R:3 energy=-85.49778665644847 pbc="F F F"
Ta       0.00000000       0.00000000       0.00000000       0.00000000       0.00000000       1.85393405
Ta       0.00000000       0.00000000       2.35515152       0.00000000       0.00000000      -1.85393405
2
Properties=species:S:1:pos:R:3:forces:R:3 energy=-85.3695202518957 pbc="F F F"
Ta       0.00000000       0.00000000       0.00000000       0.00000000       0.00000000       2.47991943
Ta       0.00000000       0.00000000       2.41393939       0.00000000       0.00000000      -2.47991943
2
Properties=species:S:1:pos:R:3:forces:R:3 energy=-85.20953668614492 pbc="F F F"
Ta       0.00000000       0.00000000       0.00000000       0.00000000       0.00000000       2.93516445
Ta       0.00000000       0.00000000       2.47272727       0.00000000       0.00000000      -2.93516445
2
Properties=species:S:1:pos:R:3:forces:R:3 energy=-85.02785691880753 pbc="F F F"
Ta       0.00000000       0.00000000       0.00000000       0.00000000       0.00000000       3.21266079
Ta       0.00000000       0.00000000       2.53151515       0.00000000       0.00000000      -3.21266079
2
Properties=species:S:1:pos:R:3:forces:R:3 energy=-84.83646429769374 pbc="F F F"
Ta       0.00000000       0.00000000       0.00000000       0.00000000       0.00000000       3.25255680
Ta       0.00000000       0.00000000       2.59030303       0.00000000       0.00000000      -3.25255680
2
Properties=species:S:1:pos:R:3:forces:R:3 energy=-84.65111352439962 pbc="F F F"
Ta       0.00000000       0.00000000       0.00000000       0.00000000       0.00000000       3.00782633
Ta       0.00000000       0.00000000       2.64909091       0.00000000       0.00000000      -3.00782633
2
Properties=species:S:1:pos:R:3:forces:R:3 energy=-84.48661652795961 pbc="F F F"
Ta       0.00000000       0.00000000       0.00000000       0.00000000       0.00000000       2.57464337
Ta       0.00000000       0.00000000       2.70787879       0.00000000       0.00000000      -2.57464337
2
Properties=species:S:1:pos:R:3:forces:R:3 energy=-84.34743645093174 pbc="F F F"
Ta       0.00000000       0.00000000       0.00000000       0.00000000       0.00000000       2.18889976
Ta       0.00000000       0.00000000       2.76666667       0.00000000       0.00000000      -2.18889976
2
Properties=species:S:1:pos:R:3:forces:R:3 energy=-84.22450711846606 pbc="F F F"
Ta       0.00000000       0.00000000       0.00000000       0.00000000       0.00000000       2.03839636
Ta       0.00000000       0.00000000       2.82545455       0.00000000       0.00000000      -2.03839636
2
Properties=species:S:1:pos:R:3:forces:R:3 energy=-84.10309118003939 pbc="F F F"
Ta       0.00000000       0.00000000       0.00000000       0.00000000       0.00000000       2.12144732
Ta       0.00000000       0.00000000       2.88424242       0.00000000       0.00000000      -2.12144732
2
Properties=species:S:1:pos:R:3:forces:R:3 energy=-83.97335050158529 pbc="F F F"
Ta       0.00000000       0.00000000       0.00000000       0.00000000       0.00000000       2.29226017
Ta       0.00000000       0.00000000       2.94303030       0.00000000       0.00000000      -2.29226017
2
Properties=species:S:1:pos:R:3:forces:R:3 energy=-83.83507877961509 pbc="F F F"
Ta       0.00000000       0.00000000       0.00000000       0.00000000       0.00000000       2.38924789
Ta       0.00000000       0.00000000       3.00181818       0.00000000       0.00000000      -2.38924789
2
Properties=species:S:1:pos:R:3:forces:R:3 energy=-83.69560062318946 pbc="F F F"
Ta       0.00000000       0.00000000       0.00000000       0.00000000       0.00000000       2.32827735
Ta       0.00000000       0.00000000       3.06060606       0.00000000       0.00000000      -2.32827735
2
Properties=species:S:1:pos:R:3:forces:R:3 energy=-83.564092931364 pbc="F F F"
Ta       0.00000000       0.00000000       0.00000000       0.00000000       0.00000000       2.12880182
Ta       0.00000000       0.00000000       3.11939394       0.00000000       0.00000000      -2.12880182
2
Properties=species:S:1:pos:R:3:forces:R:3 energy=-83.44635474521986 pbc="F F F"
Ta       0.00000000       0.00000000       0.00000000       0.00000000       0.00000000       1.87571537
Ta       0.00000000       0.00000000       3.17818182       0.00000000       0.00000000      -1.87571537
2
Properties=species:S:1:pos:R:3:forces:R:3 energy=-83.34286536187503 pbc="F F F"
Ta       0.00000000       0.00000000       0.00000000       0.00000000       0.00000000       1.65666652
Ta       0.00000000       0.00000000       3.23696970       0.00000000       0.00000000      -1.65666652
2
Properties=species:S:1:pos:R:3:forces:R:3 energy=-83.24973485925854 pbc="F F F"
Ta       0.00000000       0.00000000       0.00000000       0.00000000       0.00000000       1.53041077
Ta       0.00000000       0.00000000       3.29575758       0.00000000       0.00000000      -1.53041077
2
Properties=species:S:1:pos:R:3:forces:R:3 energy=-83.16048765149903 pbc="F F F"
Ta       0.00000000       0.00000000       0.00000000       0.00000000       0.00000000       1.52782285
Ta       0.00000000       0.00000000       3.35454545       0.00000000       0.00000000      -1.52782285
2
Properties=species:S:1:pos:R:3:forces:R:3 energy=-83.06753438783642 pbc="F F F"
Ta       0.00000000       0.00000000       0.00000000       0.00000000       0.00000000       1.65494108
Ta       0.00000000       0.00000000       3.41333333       0.00000000       0.00000000      -1.65494108
2
Properties=species:S:1:pos:R:3:forces:R:3 energy=-82.96377157921313 pbc="F F F"
Ta       0.00000000       0.00000000       0.00000000       0.00000000       0.00000000       1.88980865
Ta       0.00000000       0.00000000       3.47212121       0.00000000       0.00000000      -1.88980865
2
Properties=species:S:1:pos:R:3:forces:R:3 energy=-82.84424171320862 pbc="F F F"
Ta       0.00000000       0.00000000       0.00000000       0.00000000       0.00000000       2.18023181
Ta       0.00000000       0.00000000       3.53090909       0.00000000       0.00000000      -2.18023181
2
Properties=species:S:1:pos:R:3:forces:R:3 energy=-82.70778389462815 pbc="F F F"
Ta       0.00000000       0.00000000       0.00000000       0.00000000       0.00000000       2.45247746
Ta       0.00000000       0.00000000       3.58969697       0.00000000       0.00000000      -2.45247746
2
Properties=species:S:1:pos:R:3:forces:R:3 energy=-82.5576502697804 pbc="F F F"
Ta       0.00000000       0.00000000       0.00000000       0.00000000       0.00000000       2.63569331
Ta       0.00000000       0.00000000       3.64848485       0.00000000       0.00000000      -2.63569331
2
Properties=species:S:1:pos:R:3:forces:R:3 energy=-82.40046372332647 pbc="F F F"
Ta       0.00000000       0.00000000       0.00000000       0.00000000       0.00000000       2.68907404
Ta       0.00000000       0.00000000       3.70727273       0.00000000       0.00000000      -2.68907404
2
Properties=species:S:1:pos:R:3:forces:R:3 energy=-82.24405206474059 pbc="F F F"
Ta       0.00000000       0.00000000       0.00000000       0.00000000       0.00000000       2.61248159
Ta       0.00000000       0.00000000       3.76606061       0.00000000       0.00000000      -2.61248159
2
Properties=species:S:1:pos:R:3:forces:R:3 energy=-82.09525107788338 pbc="F F F"
Ta       0.00000000       0.00000000       0.00000000       0.00000000       0.00000000       2.43691373
Ta       0.00000000       0.00000000       3.82484848       0.00000000       0.00000000      -2.43691373
2
Properties=species:S:1:pos:R:3:forces:R:3 energy=-81.95860775043083 pbc="F F F"
Ta       0.00000000       0.00000000       0.00000000       0.00000000       0.00000000       2.20597339
Ta       0.00000000       0.00000000       3.88363636       0.00000000       0.00000000      -2.20597339
2
Properties=species:S:1:pos:R:3:forces:R:3 energy=-81.83616650827548 pbc="F F F"
Ta       0.00000000       0.00000000       0.00000000       0.00000000       0.00000000       1.95977414
Ta       0.00000000       0.00000000       3.94242424       0.00000000       0.00000000      -1.95977414
2
Properties=species:S:1:pos:R:3:forces:R:3 energy=-81.72793477015168 pbc="F F F"
Ta       0.00000000       0.00000000       0.00000000       0.00000000       0.00000000       1.72624552
Ta       0.00000000       0.00000000       4.00121212       0.00000000       0.00000000      -1.72624552
2
Properties=species:S:1:pos:R:3:forces:R:3 energy=-81.63266108093747 pbc="F F F"
Ta       0.00000000       0.00000000       0.00000000       0.00000000       0.00000000       1.52015054
Ta       0.00000000       0.00000000       4.06000000       0.00000000       0.00000000      -1.52015054
2
Properties=species:S:1:pos:R:3:forces:R:3 energy=-81.54855229216349 pbc="F F F"
Ta       0.00000000       0.00000000       0.00000000       0.00000000       0.00000000       1.34689271
Ta       0.00000000       0.00000000       4.11878788       0.00000000       0.00000000      -1.34689271
2
Properties=species:S:1:pos:R:3:forces:R:3 energy=-81.47364740234512 pbc="F F F"
Ta       0.00000000       0.00000000       0.00000000       0.00000000       0.00000000       1.20677638
Ta       0.00000000       0.00000000       4.17757576       0.00000000       0.00000000      -1.20677638
2
Properties=species:S:1:pos:R:3:forces:R:3 energy=-81.40606172294994 pbc="F F F"
Ta       0.00000000       0.00000000       0.00000000       0.00000000       0.00000000       1.09738970
Ta       0.00000000       0.00000000       4.23636364       0.00000000       0.00000000      -1.09738970
2
Properties=species:S:1:pos:R:3:forces:R:3 energy=-81.34410888218602 pbc="F F F"
Ta       0.00000000       0.00000000       0.00000000       0.00000000       0.00000000       1.01404154
Ta       0.00000000       0.00000000       4.29515152       0.00000000       0.00000000      -1.01404154
2
Properties=species:S:1:pos:R:3:forces:R:3 energy=-81.28646114524126 pbc="F F F"
Ta       0.00000000       0.00000000       0.00000000       0.00000000       0.00000000       0.94963676
Ta       0.00000000       0.00000000       4.35393939       0.00000000       0.00000000      -0.94963676
2
Properties=species:S:1:pos:R:3:forces:R:3 energy=-81.23227137847391 pbc="F F F"
Ta       0.00000000       0.00000000       0.00000000       0.00000000       0.00000000       0.89479661
Ta       0.00000000       0.00000000       4.41272727       0.00000000       0.00000000      -0.89479661
2
Properties=species:S:1:pos:R:3:forces:R:3 energy=-81.18127231707264 pbc="F F F"
Ta       0.00000000       0.00000000       0.00000000       0.00000000       0.00000000       0.83900601
Ta       0.00000000       0.00000000       4.47151515       0.00000000       0.00000000      -0.83900601
2
Properties=species:S:1:pos:R:3:forces:R:3 energy=-81.13382994864347 pbc="F F F"
Ta       0.00000000       0.00000000       0.00000000       0.00000000       0.00000000       0.77256680
Ta       0.00000000       0.00000000       4.53030303       0.00000000       0.00000000      -0.77256680
2
Properties=species:S:1:pos:R:3:forces:R:3 energy=-81.09077564277146 pbc="F F F"
Ta       0.00000000       0.00000000       0.00000000       0.00000000       0.00000000       0.68912935
Ta       0.00000000       0.00000000       4.58909091       0.00000000       0.00000000      -0.68912935
2
Properties=species:S:1:pos:R:3:forces:R:3 energy=-81.05316202148312 pbc="F F F"
Ta       0.00000000       0.00000000       0.00000000       0.00000000       0.00000000       0.58779407
Ta       0.00000000       0.00000000       4.64787879       0.00000000       0.00000000      -0.58779407
2
Properties=species:S:1:pos:R:3:forces:R:3 energy=-81.02191966817061 pbc="F F F"
Ta       0.00000000       0.00000000       0.00000000       0.00000000       0.00000000       0.47370401
Ta       0.00000000       0.00000000       4.70666667       0.00000000       0.00000000      -0.47370401
2
Properties=species:S:1:pos:R:3:forces:R:3 energy=-80.99752141839338 pbc="F F F"
Ta       0.00000000       0.00000000       0.00000000       0.00000000       0.00000000       0.35674363
Ta       0.00000000       0.00000000       4.76545455       0.00000000       0.00000000      -0.35674363
2
Properties=species:S:1:pos:R:3:forces:R:3 energy=-80.97979924807369 pbc="F F F"
Ta       0.00000000       0.00000000       0.00000000       0.00000000       0.00000000       0.24849883
Ta       0.00000000       0.00000000       4.82424242       0.00000000       0.00000000      -0.24849883
2
Properties=species:S:1:pos:R:3:forces:R:3 energy=-80.96793666469297 pbc="F F F"
Ta       0.00000000       0.00000000       0.00000000       0.00000000       0.00000000       0.15887026
Ta       0.00000000       0.00000000       4.88303030       0.00000000       0.00000000      -0.15887026
2
Properties=species:S:1:pos:R:3:forces:R:3 energy=-80.96064416277518 pbc="F F F"
Ta       0.00000000       0.00000000       0.00000000       0.00000000       0.00000000       0.09332017
Ta       0.00000000       0.00000000       4.94181818       0.00000000       0.00000000      -0.09332017
2
Properties=species:S:1:pos:R:3:forces:R:3 energy=-80.95648731319423 pbc="F F F"
Ta       0.00000000       0.00000000       0.00000000       0.00000000       0.00000000       0.05189599
Ta       0.00000000       0.00000000       5.00060606       0.00000000       0.00000000      -0.05189599
2
Properties=species:S:1:pos:R:3:forces:R:3 energy=-80.95416141662534 pbc="F F F"
Ta       0.00000000       0.00000000       0.00000000       0.00000000       0.00000000       0.02999257
Ta       0.00000000       0.00000000       5.05939394       0.00000000       0.00000000      -0.02999257
2
Properties=species:S:1:pos:R:3:forces:R:3 energy=-80.95271275915437 pbc="F F F"
Ta       0.00000000       0.00000000       0.00000000       0.00000000       0.00000000       0.02080087
Ta       0.00000000       0.00000000       5.11818182       0.00000000       0.00000000      -0.02080087
2
Properties=species:S:1:pos:R:3:forces:R:3 energy=-80.95158438389312 pbc="F F F"
Ta       0.00000000       0.00000000       0.00000000       0.00000000       0.00000000       0.01855467
Ta       0.00000000       0.00000000       5.17696970       0.00000000       0.00000000      -0.01855467
2
Properties=species:S:1:pos:R:3:forces:R:3 energy=-80.95044063708 pbc="F F F"
Ta       0.00000000       0.00000000       0.00000000       0.00000000       0.00000000       0.02112449
Ta       0.00000000       0.00000000       5.23575758       0.00000000       0.00000000      -0.02112449
2
Properties=species:S:1:pos:R:3:forces:R:3 energy=-80.94897640629024 pbc="F F F"
Ta       0.00000000       0.00000000       0.00000000       0.00000000       0.00000000       0.02987611
Ta       0.00000000       0.00000000       5.29454545       0.00000000       0.00000000      -0.02987611
2
Properties=species:S:1:pos:R:3:forces:R:3 energy=-80.94680271277994 pbc="F F F"
Ta       0.00000000       0.00000000       0.00000000       0.00000000       0.00000000       0.04493314
Ta       0.00000000       0.00000000       5.35333333       0.00000000       0.00000000      -0.04493314
2
Properties=species:S:1:pos:R:3:forces:R:3 energy=-80.94372897849304 pbc="F F F"
Ta       0.00000000       0.00000000       0.00000000       0.00000000       0.00000000       0.05812015
Ta       0.00000000       0.00000000       5.41212121       0.00000000       0.00000000      -0.05812015
2
Properties=species:S:1:pos:R:3:forces:R:3 energy=-80.94025131998252 pbc="F F F"
Ta       0.00000000       0.00000000       0.00000000       0.00000000       0.00000000       0.05762644
Ta       0.00000000       0.00000000       5.47090909       0.00000000       0.00000000      -0.05762644
2
Properties=species:S:1:pos:R:3:forces:R:3 energy=-80.93706425924083 pbc="F F F"
Ta       0.00000000       0.00000000       0.00000000       0.00000000       0.00000000       0.05185809
Ta       0.00000000       0.00000000       5.52969697       0.00000000       0.00000000      -0.05185809
2
Properties=species:S:1:pos:R:3:forces:R:3 energy=-80.93393157647714 pbc="F F F"
Ta       0.00000000       0.00000000       0.00000000       0.00000000       0.00000000       0.05589336
Ta       0.00000000       0.00000000       5.58848485       0.00000000       0.00000000      -0.05589336
2
Properties=species:S:1:pos:R:3:forces:R:3 energy=-80.93053318241375 pbc="F F F"
Ta       0.00000000       0.00000000       0.00000000       0.00000000       0.00000000       0.05790784
Ta       0.00000000       0.00000000       5.64727273       0.00000000       0.00000000      -0.05790784
2
Properties=species:S:1:pos:R:3:forces:R:3 energy=-80.9273958869959 pbc="F F F"
Ta       0.00000000       0.00000000       0.00000000       0.00000000       0.00000000       0.04701985
Ta       0.00000000       0.00000000       5.70606061       0.00000000       0.00000000      -0.04701985
2
Properties=species:S:1:pos:R:3:forces:R:3 energy=-80.92504653659877 pbc="F F F"
Ta       0.00000000       0.00000000       0.00000000       0.00000000       0.00000000       0.03422744
Ta       0.00000000       0.00000000       5.76484848       0.00000000       0.00000000      -0.03422744
2
Properties=species:S:1:pos:R:3:forces:R:3 energy=-80.92312702485269 pbc="F F F"
Ta       0.00000000       0.00000000       0.00000000       0.00000000       0.00000000       0.03237690
Ta       0.00000000       0.00000000       5.82363636       0.00000000       0.00000000      -0.03237690
2
Properties=species:S:1:pos:R:3:forces:R:3 energy=-80.92134792973772 pbc="F F F"
Ta       0.00000000       0.00000000       0.00000000       0.00000000       0.00000000       0.02601432
Ta       0.00000000       0.00000000       5.88242424       0.00000000       0.00000000      -0.02601432
2
Properties=species:S:1:pos:R:3:forces:R:3 energy=-80.92023621008668 pbc="F F F"
Ta       0.00000000       0.00000000       0.00000000       0.00000000       0.00000000       0.01156292
Ta       0.00000000       0.00000000       5.94121212       0.00000000       0.00000000      -0.01156292
2
Properties=species:S:1:pos:R:3:forces:R:3 energy=-80.91983057357679 pbc="F F F"
Ta       0.00000000       0.00000000       0.00000000       0.00000000       0.00000000       0.00459006
Ta       0.00000000       0.00000000       6.00000000       0.00000000       0.00000000      -0.00459006
