2
Properties=species:S:1:pos:R:3:forces:R:3 energy=4615279.984504031 pbc="F F F"
Zr       0.00000000       0.00000000       0.00000000       0.00000000       0.00000000 -785855.43750000
Zr       0.00000000       0.00000000       0.18000000       0.00000000       0.00000000  785855.43750000
2
Properties=species:S:1:pos:R:3:forces:R:3 energy=4540951.484504031 pbc="F F F"
Zr       0.00000000       0.00000000       0.00000000       0.00000000       0.00000000 -1888031.25000000
Zr       0.00000000       0.00000000       0.23878788       0.00000000       0.00000000 1888031.25000000
2
Properties=species:S:1:pos:R:3:forces:R:3 energy=4374444.484504031 pbc="F F F"
Zr       0.00000000       0.00000000       0.00000000       0.00000000       0.00000000 -3951756.00000000
Zr       0.00000000       0.00000000       0.29757576       0.00000000       0.00000000 3951756.00000000
2
Properties=species:S:1:pos:R:3:forces:R:3 energy=4056458.984504031 pbc="F F F"
Zr       0.00000000       0.00000000       0.00000000       0.00000000       0.00000000 -7019844.50000000
Zr       0.00000000       0.00000000       0.35636364       0.00000000       0.00000000 7019844.50000000
2
Properties=species:S:1:pos:R:3:forces:R:3 energy=3536282.7345040324 pbc="F F F"
Zr       0.00000000       0.00000000       0.00000000       0.00000000       0.00000000 -10716443.00000000
Zr       0.00000000       0.00000000       0.41515152       0.00000000       0.00000000 10716443.00000000
2
Properties=species:S:1:pos:R:3:forces:R:3 energy=2804101.4845040343 pbc="F F F"
Zr       0.00000000       0.00000000       0.00000000       0.00000000       0.00000000 -14001592.00000000
Zr       0.00000000       0.00000000       0.47393939       0.00000000       0.00000000 14001592.00000000
2
Properties=species:S:1:pos:R:3:forces:R:3 energy=1929312.484504034 pbc="F F F"
Zr       0.00000000       0.00000000       0.00000000       0.00000000       0.00000000 -15288875.00000000
Zr       0.00000000       0.00000000       0.53272727       0.00000000       0.00000000 15288875.00000000
2
Properties=species:S:1:pos:R:3:forces:R:3 energy=1072039.9845040373 pbc="F F F"
Zr       0.00000000       0.00000000       0.00000000       0.00000000       0.00000000 -13290357.00000000
Zr       0.00000000       0.00000000       0.59151515       0.00000000       0.00000000 13290357.00000000
2
Properties=species:S:1:pos:R:3:forces:R:3 energy=423564.20325404045 pbc="F F F"
Zr       0.00000000       0.00000000       0.00000000       0.00000000       0.00000000 -8402889.00000000
Zr       0.00000000       0.00000000       0.65030303       0.00000000       0.00000000 8402889.00000000
2
Properties=species:S:1:pos:R:3:forces:R:3 energy=90580.20325404676 pbc="F F F"
Zr       0.00000000       0.00000000       0.00000000       0.00000000       0.00000000 -3151990.25000000
Zr       0.00000000       0.00000000       0.70909091       0.00000000       0.00000000 3151990.25000000
2
Properties=species:S:1:pos:R:3:forces:R:3 energy=4458.530402493766 pbc="F F F"
Zr       0.00000000       0.00000000       0.00000000       0.00000000       0.00000000 -339571.28125000
Zr       0.00000000       0.00000000       0.76787879       0.00000000       0.00000000  339571.28125000
2
Properties=species:S:1:pos:R:3:forces:R:3 energy=226.82138761385886 pbc="F F F"
Zr       0.00000000       0.00000000       0.00000000       0.00000000       0.00000000   -2241.73999023
Zr       0.00000000       0.00000000       0.82666667       0.00000000       0.00000000    2241.73999023
2
Properties=species:S:1:pos:R:3:forces:R:3 energy=82.00559173759612 pbc="F F F"
Zr       0.00000000       0.00000000       0.00000000       0.00000000       0.00000000     595.84167480
Zr       0.00000000       0.00000000       0.88545455       0.00000000       0.00000000    -595.84167480
2
Properties=species:S:1:pos:R:3:forces:R:3 energy=222.23323763696214 pbc="F F F"
Zr       0.00000000       0.00000000       0.00000000       0.00000000       0.00000000   -1391.41369629
Zr       0.00000000       0.00000000       0.94424242       0.00000000       0.00000000    1391.41369629
2
Properties=species:S:1:pos:R:3:forces:R:3 energy=170.34011023356976 pbc="F F F"
Zr       0.00000000       0.00000000       0.00000000       0.00000000       0.00000000    -705.49877930
Zr       0.00000000       0.00000000       1.00303030       0.00000000       0.00000000     705.49877930
2
Properties=species:S:1:pos:R:3:forces:R:3 energy=132.61154888288772 pbc="F F F"
Zr       0.00000000       0.00000000       0.00000000       0.00000000       0.00000000    -615.42651367
Zr       0.00000000       0.00000000       1.06181818       0.00000000       0.00000000     615.42651367
2
Properties=species:S:1:pos:R:3:forces:R:3 energy=95.90482287677715 pbc="F F F"
Zr       0.00000000       0.00000000       0.00000000       0.00000000       0.00000000    -626.56347656
Zr       0.00000000       0.00000000       1.12060606       0.00000000       0.00000000     626.56347656
2
Properties=species:S:1:pos:R:3:forces:R:3 energy=65.62058224123601 pbc="F F F"
Zr       0.00000000       0.00000000       0.00000000       0.00000000       0.00000000    -440.18289185
Zr       0.00000000       0.00000000       1.17939394       0.00000000       0.00000000     440.18289185
2
Properties=species:S:1:pos:R:3:forces:R:3 energy=41.7872197759319 pbc="F F F"
Zr       0.00000000       0.00000000       0.00000000       0.00000000       0.00000000    -368.18804932
Zr       0.00000000       0.00000000       1.23818182       0.00000000       0.00000000     368.18804932
2
Properties=species:S:1:pos:R:3:forces:R:3 energy=22.24949637722413 pbc="F F F"
Zr       0.00000000       0.00000000       0.00000000       0.00000000       0.00000000    -298.78509521
Zr       0.00000000       0.00000000       1.29696970       0.00000000       0.00000000     298.78509521
2
Properties=species:S:1:pos:R:3:forces:R:3 energy=6.3690758729755395 pbc="F F F"
Zr       0.00000000       0.00000000       0.00000000       0.00000000       0.00000000    -242.55949402
Zr       0.00000000       0.00000000       1.35575758       0.00000000       0.00000000     242.55949402
2
Properties=species:S:1:pos:R:3:forces:R:3 energy=-6.287461911752643 pbc="F F F"
Zr       0.00000000       0.00000000       0.00000000       0.00000000       0.00000000    -188.63110352
Zr       0.00000000       0.00000000       1.41454545       0.00000000       0.00000000     188.63110352
2
Properties=species:S:1:pos:R:3:forces:R:3 energy=-16.12834679533781 pbc="F F F"
Zr       0.00000000       0.00000000       0.00000000       0.00000000       0.00000000    -150.59170532
Zr       0.00000000       0.00000000       1.47333333       0.00000000       0.00000000     150.59170532
2
Properties=species:S:1:pos:R:3:forces:R:3 energy=-24.132468233608524 pbc="F F F"
Zr       0.00000000       0.00000000       0.00000000       0.00000000       0.00000000    -119.20989990
Zr       0.00000000       0.00000000       1.53212121       0.00000000       0.00000000     119.20989990
2
Properties=species:S:1:pos:R:3:forces:R:3 energy=-30.287048886986202 pbc="F F F"
Zr       0.00000000       0.00000000       0.00000000       0.00000000       0.00000000     -95.61668396
Zr       0.00000000       0.00000000       1.59090909       0.00000000       0.00000000      95.61668396
2
Properties=species:S:1:pos:R:3:forces:R:3 energy=-35.36292843396166 pbc="F F F"
Zr       0.00000000       0.00000000       0.00000000       0.00000000       0.00000000     -71.81416321
Zr       0.00000000       0.00000000       1.64969697       0.00000000       0.00000000      71.81416321
2
Properties=species:S:1:pos:R:3:forces:R:3 energy=-38.58228436735678 pbc="F F F"
Zr       0.00000000       0.00000000       0.00000000       0.00000000       0.00000000     -40.41078949
Zr       0.00000000       0.00000000       1.70848485       0.00000000       0.00000000      40.41078949
2
Properties=species:S:1:pos:R:3:forces:R:3 energy=-40.43479600471247 pbc="F F F"
Zr       0.00000000       0.00000000       0.00000000       0.00000000       0.00000000     -24.24399376
Zr       0.00000000       0.00000000       1.76727273       0.00000000       0.00000000      24.24399376
2
Properties=species:S:1:pos:R:3:forces:R:3 energy=-41.51617789452968 pbc="F F F"
Zr       0.00000000       0.00000000       0.00000000       0.00000000       0.00000000     -12.79297161
Zr       0.00000000       0.00000000       1.82606061       0.00000000       0.00000000      12.79297161
2
Properties=species:S:1:pos:R:3:forces:R:3 energy=-41.96975585197596 pbc="F F F"
Zr       0.00000000       0.00000000       0.00000000       0.00000000       0.00000000      -3.02926993
Zr       0.00000000       0.00000000       1.88484848       0.00000000       0.00000000       3.02926993
2
Properties=species:S:1:pos:R:3:forces:R:3 energy=-41.929524882518486 pbc="F F F"
Zr       0.00000000       0.00000000       0.00000000       0.00000000       0.00000000       3.89509892
Zr       0.00000000       0.00000000       1.94363636       0.00000000       0.00000000      -3.89509892
2
Properties=species:S:1:pos:R:3:forces:R:3 energy=-41.562374176831085 pbc="F F F"
Zr       0.00000000       0.00000000       0.00000000       0.00000000       0.00000000       8.25749207
Zr       0.00000000       0.00000000       2.00242424       0.00000000       0.00000000      -8.25749207
2
Properties=species:S:1:pos:R:3:forces:R:3 energy=-40.9897446603788 pbc="F F F"
Zr       0.00000000       0.00000000       0.00000000       0.00000000       0.00000000      11.00462914
Zr       0.00000000       0.00000000       2.06121212       0.00000000       0.00000000     -11.00462914
2
Properties=species:S:1:pos:R:3:forces:R:3 energy=-40.29322887713696 pbc="F F F"
Zr       0.00000000       0.00000000       0.00000000       0.00000000       0.00000000      12.47646427
Zr       0.00000000       0.00000000       2.12000000       0.00000000       0.00000000     -12.47646427
2
Properties=species:S:1:pos:R:3:forces:R:3 energy=-39.549422257047134 pbc="F F F"
Zr       0.00000000       0.00000000       0.00000000       0.00000000       0.00000000      12.59249973
Zr       0.00000000       0.00000000       2.17878788       0.00000000       0.00000000     -12.59249973
2
Properties=species:S:1:pos:R:3:forces:R:3 energy=-38.84010447966257 pbc="F F F"
Zr       0.00000000       0.00000000       0.00000000       0.00000000       0.00000000      11.32329941
Zr       0.00000000       0.00000000       2.23757576       0.00000000       0.00000000     -11.32329941
2
Properties=species:S:1:pos:R:3:forces:R:3 energy=-38.237541489933314 pbc="F F F"
Zr       0.00000000       0.00000000       0.00000000       0.00000000       0.00000000       9.08162498
Zr       0.00000000       0.00000000       2.29636364       0.00000000       0.00000000      -9.08162498
2
Properties=species:S:1:pos:R:3:forces:R:3 energy=-37.77370489287135 pbc="F F F"
Zr       0.00000000       0.00000000       0.00000000       0.00000000       0.00000000       6.75807238
Zr       0.00000000       0.00000000       2.35515152       0.00000000       0.00000000      -6.75807238
2
Properties=species:S:1:pos:R:3:forces:R:3 energy=-37.431898803926344 pbc="F F F"
Zr       0.00000000       0.00000000       0.00000000       0.00000000       0.00000000       4.97278309
Zr       0.00000000       0.00000000       2.41393939       0.00000000       0.00000000      -4.97278309
2
Properties=species:S:1:pos:R:3:forces:R:3 energy=-37.17876924617421 pbc="F F F"
Zr       0.00000000       0.00000000       0.00000000       0.00000000       0.00000000       3.70822120
Zr       0.00000000       0.00000000       2.47272727       0.00000000       0.00000000      -3.70822120
2
Properties=species:S:1:pos:R:3:forces:R:3 energy=-36.98897017607379 pbc="F F F"
Zr       0.00000000       0.00000000       0.00000000       0.00000000       0.00000000       2.80403996
Zr       0.00000000       0.00000000       2.53151515       0.00000000       0.00000000      -2.80403996
2
Properties=species:S:1:pos:R:3:forces:R:3 energy=-36.84240990243767 pbc="F F F"
Zr       0.00000000       0.00000000       0.00000000       0.00000000       0.00000000       2.24021935
Zr       0.00000000       0.00000000       2.59030303       0.00000000       0.00000000      -2.24021935
2
Properties=species:S:1:pos:R:3:forces:R:3 energy=-36.71896440386665 pbc="F F F"
Zr       0.00000000       0.00000000       0.00000000       0.00000000       0.00000000       2.01077056
Zr       0.00000000       0.00000000       2.64909091       0.00000000       0.00000000      -2.01077056
2
Properties=species:S:1:pos:R:3:forces:R:3 energy=-36.60096924473261 pbc="F F F"
Zr       0.00000000       0.00000000       0.00000000       0.00000000       0.00000000       2.03613520
Zr       0.00000000       0.00000000       2.70787879       0.00000000       0.00000000      -2.03613520
2
Properties=species:S:1:pos:R:3:forces:R:3 energy=-36.4770507033274 pbc="F F F"
Zr       0.00000000       0.00000000       0.00000000       0.00000000       0.00000000       2.18960524
Zr       0.00000000       0.00000000       2.76666667       0.00000000       0.00000000      -2.18960524
2
Properties=species:S:1:pos:R:3:forces:R:3 energy=-36.34363414377079 pbc="F F F"
Zr       0.00000000       0.00000000       0.00000000       0.00000000       0.00000000       2.33835697
Zr       0.00000000       0.00000000       2.82545455       0.00000000       0.00000000      -2.33835697
2
Properties=species:S:1:pos:R:3:forces:R:3 energy=-36.20427481984078 pbc="F F F"
Zr       0.00000000       0.00000000       0.00000000       0.00000000       0.00000000       2.37933898
Zr       0.00000000       0.00000000       2.88424242       0.00000000       0.00000000      -2.37933898
2
Properties=species:S:1:pos:R:3:forces:R:3 energy=-36.06675385700501 pbc="F F F"
Zr       0.00000000       0.00000000       0.00000000       0.00000000       0.00000000       2.27661276
Zr       0.00000000       0.00000000       2.94303030       0.00000000       0.00000000      -2.27661276
2
Properties=species:S:1:pos:R:3:forces:R:3 energy=-35.938595060657995 pbc="F F F"
Zr       0.00000000       0.00000000       0.00000000       0.00000000       0.00000000       2.07357430
Zr       0.00000000       0.00000000       3.00181818       0.00000000       0.00000000      -2.07357430
2
Properties=species:S:1:pos:R:3:forces:R:3 energy=-35.82316420886539 pbc="F F F"
Zr       0.00000000       0.00000000       0.00000000       0.00000000       0.00000000       1.85918283
Zr       0.00000000       0.00000000       3.06060606       0.00000000       0.00000000      -1.85918283
2
Properties=species:S:1:pos:R:3:forces:R:3 energy=-35.71867545298221 pbc="F F F"
Zr       0.00000000       0.00000000       0.00000000       0.00000000       0.00000000       1.71054363
Zr       0.00000000       0.00000000       3.11939394       0.00000000       0.00000000      -1.71054363
2
Properties=species:S:1:pos:R:3:forces:R:3 energy=-35.620200741944096 pbc="F F F"
Zr       0.00000000       0.00000000       0.00000000       0.00000000       0.00000000       1.65435529
Zr       0.00000000       0.00000000       3.17818182       0.00000000       0.00000000      -1.65435529
2
Properties=species:S:1:pos:R:3:forces:R:3 energy=-35.5227745281788 pbc="F F F"
Zr       0.00000000       0.00000000       0.00000000       0.00000000       0.00000000       1.66852951
Zr       0.00000000       0.00000000       3.23696970       0.00000000       0.00000000      -1.66852951
2
Properties=species:S:1:pos:R:3:forces:R:3 energy=-35.42346964317262 pbc="F F F"
Zr       0.00000000       0.00000000       0.00000000       0.00000000       0.00000000       1.71122861
Zr       0.00000000       0.00000000       3.29575758       0.00000000       0.00000000      -1.71122861
2
Properties=species:S:1:pos:R:3:forces:R:3 energy=-35.32170180359156 pbc="F F F"
Zr       0.00000000       0.00000000       0.00000000       0.00000000       0.00000000       1.74793565
Zr       0.00000000       0.00000000       3.35454545       0.00000000       0.00000000      -1.74793565
2
Properties=species:S:1:pos:R:3:forces:R:3 energy=-35.21848374490653 pbc="F F F"
Zr       0.00000000       0.00000000       0.00000000       0.00000000       0.00000000       1.75804317
Zr       0.00000000       0.00000000       3.41333333       0.00000000       0.00000000      -1.75804317
2
Properties=species:S:1:pos:R:3:forces:R:3 energy=-35.115785040293765 pbc="F F F"
Zr       0.00000000       0.00000000       0.00000000       0.00000000       0.00000000       1.72810256
Zr       0.00000000       0.00000000       3.47212121       0.00000000       0.00000000      -1.72810256
2
Properties=species:S:1:pos:R:3:forces:R:3 energy=-35.016274239169185 pbc="F F F"
Zr       0.00000000       0.00000000       0.00000000       0.00000000       0.00000000       1.64863014
Zr       0.00000000       0.00000000       3.53090909       0.00000000       0.00000000      -1.64863014
2
Properties=species:S:1:pos:R:3:forces:R:3 energy=-34.92293649169813 pbc="F F F"
Zr       0.00000000       0.00000000       0.00000000       0.00000000       0.00000000       1.51912224
Zr       0.00000000       0.00000000       3.58969697       0.00000000       0.00000000      -1.51912224
2
Properties=species:S:1:pos:R:3:forces:R:3 energy=-34.83836610098477 pbc="F F F"
Zr       0.00000000       0.00000000       0.00000000       0.00000000       0.00000000       1.35419166
Zr       0.00000000       0.00000000       3.64848485       0.00000000       0.00000000      -1.35419166
2
Properties=species:S:1:pos:R:3:forces:R:3 energy=-34.76386005764707 pbc="F F F"
Zr       0.00000000       0.00000000       0.00000000       0.00000000       0.00000000       1.18227196
Zr       0.00000000       0.00000000       3.70727273       0.00000000       0.00000000      -1.18227196
2
Properties=species:S:1:pos:R:3:forces:R:3 energy=-34.698856486694645 pbc="F F F"
Zr       0.00000000       0.00000000       0.00000000       0.00000000       0.00000000       1.03565550
Zr       0.00000000       0.00000000       3.76606061       0.00000000       0.00000000      -1.03565550
2
Properties=species:S:1:pos:R:3:forces:R:3 energy=-34.64112119005533 pbc="F F F"
Zr       0.00000000       0.00000000       0.00000000       0.00000000       0.00000000       0.93792427
Zr       0.00000000       0.00000000       3.82484848       0.00000000       0.00000000      -0.93792427
2
Properties=species:S:1:pos:R:3:forces:R:3 energy=-34.58747327977819 pbc="F F F"
Zr       0.00000000       0.00000000       0.00000000       0.00000000       0.00000000       0.89618164
Zr       0.00000000       0.00000000       3.88363636       0.00000000       0.00000000      -0.89618164
2
Properties=species:S:1:pos:R:3:forces:R:3 energy=-34.534824026340075 pbc="F F F"
Zr       0.00000000       0.00000000       0.00000000       0.00000000       0.00000000       0.90148193
Zr       0.00000000       0.00000000       3.94242424       0.00000000       0.00000000      -0.90148193
2
Properties=species:S:1:pos:R:3:forces:R:3 energy=-34.48092300861224 pbc="F F F"
Zr       0.00000000       0.00000000       0.00000000       0.00000000       0.00000000       0.93526369
Zr       0.00000000       0.00000000       4.00121212       0.00000000       0.00000000      -0.93526369
2
Properties=species:S:1:pos:R:3:forces:R:3 energy=-34.424701835759755 pbc="F F F"
Zr       0.00000000       0.00000000       0.00000000       0.00000000       0.00000000       0.97726858
Zr       0.00000000       0.00000000       4.06000000       0.00000000       0.00000000      -0.97726858
2
Properties=species:S:1:pos:R:3:forces:R:3 energy=-34.36617922330506 pbc="F F F"
Zr       0.00000000       0.00000000       0.00000000       0.00000000       0.00000000       1.01132178
Zr       0.00000000       0.00000000       4.11878788       0.00000000       0.00000000      -1.01132178
2
Properties=species:S:1:pos:R:3:forces:R:3 energy=-34.30613682305588 pbc="F F F"
Zr       0.00000000       0.00000000       0.00000000       0.00000000       0.00000000       1.02804148
Zr       0.00000000       0.00000000       4.17757576       0.00000000       0.00000000      -1.02804148
2
Properties=species:S:1:pos:R:3:forces:R:3 energy=-34.24569949553226 pbc="F F F"
Zr       0.00000000       0.00000000       0.00000000       0.00000000       0.00000000       1.02494764
Zr       0.00000000       0.00000000       4.23636364       0.00000000       0.00000000      -1.02494764
2
Properties=species:S:1:pos:R:3:forces:R:3 energy=-34.18596160901868 pbc="F F F"
Zr       0.00000000       0.00000000       0.00000000       0.00000000       0.00000000       1.00491452
Zr       0.00000000       0.00000000       4.29515152       0.00000000       0.00000000      -1.00491452
2
Properties=species:S:1:pos:R:3:forces:R:3 energy=-34.12776197242541 pbc="F F F"
Zr       0.00000000       0.00000000       0.00000000       0.00000000       0.00000000       0.97378808
Zr       0.00000000       0.00000000       4.35393939       0.00000000       0.00000000      -0.97378808
2
Properties=species:S:1:pos:R:3:forces:R:3 energy=-34.071561707955205 pbc="F F F"
Zr       0.00000000       0.00000000       0.00000000       0.00000000       0.00000000       0.93782425
Zr       0.00000000       0.00000000       4.41272727       0.00000000       0.00000000      -0.93782425
2
Properties=species:S:1:pos:R:3:forces:R:3 energy=-34.017501569764775 pbc="F F F"
Zr       0.00000000       0.00000000       0.00000000       0.00000000       0.00000000       0.90154046
Zr       0.00000000       0.00000000       4.47151515       0.00000000       0.00000000      -0.90154046
2
Properties=species:S:1:pos:R:3:forces:R:3 energy=-33.96553536333439 pbc="F F F"
Zr       0.00000000       0.00000000       0.00000000       0.00000000       0.00000000       0.86648887
Zr       0.00000000       0.00000000       4.53030303       0.00000000       0.00000000      -0.86648887
2
Properties=species:S:1:pos:R:3:forces:R:3 energy=-33.91562837625002 pbc="F F F"
Zr       0.00000000       0.00000000       0.00000000       0.00000000       0.00000000       0.83121383
Zr       0.00000000       0.00000000       4.58909091       0.00000000       0.00000000      -0.83121383
2
Properties=species:S:1:pos:R:3:forces:R:3 energy=-33.867875586301174 pbc="F F F"
Zr       0.00000000       0.00000000       0.00000000       0.00000000       0.00000000       0.79243714
Zr       0.00000000       0.00000000       4.64787879       0.00000000       0.00000000      -0.79243714
2
Properties=species:S:1:pos:R:3:forces:R:3 energy=-33.822589475545776 pbc="F F F"
Zr       0.00000000       0.00000000       0.00000000       0.00000000       0.00000000       0.74686319
Zr       0.00000000       0.00000000       4.70666667       0.00000000       0.00000000      -0.74686319
2
Properties=species:S:1:pos:R:3:forces:R:3 energy=-33.780227525719525 pbc="F F F"
Zr       0.00000000       0.00000000       0.00000000       0.00000000       0.00000000       0.69296265
Zr       0.00000000       0.00000000       4.76545455       0.00000000       0.00000000      -0.69296265
2
Properties=species:S:1:pos:R:3:forces:R:3 energy=-33.7412548669596 pbc="F F F"
Zr       0.00000000       0.00000000       0.00000000       0.00000000       0.00000000       0.63193536
Zr       0.00000000       0.00000000       4.82424242       0.00000000       0.00000000      -0.63193536
2
Properties=species:S:1:pos:R:3:forces:R:3 energy=-33.70599554896077 pbc="F F F"
Zr       0.00000000       0.00000000       0.00000000       0.00000000       0.00000000       0.56763339
Zr       0.00000000       0.00000000       4.88303030       0.00000000       0.00000000      -0.56763339
2
Properties=species:S:1:pos:R:3:forces:R:3 energy=-33.67447230151553 pbc="F F F"
Zr       0.00000000       0.00000000       0.00000000       0.00000000       0.00000000       0.50553650
Zr       0.00000000       0.00000000       4.94181818       0.00000000       0.00000000      -0.50553650
2
Properties=species:S:1:pos:R:3:forces:R:3 energy=-33.64639892729429 pbc="F F F"
Zr       0.00000000       0.00000000       0.00000000       0.00000000       0.00000000       0.45126754
Zr       0.00000000       0.00000000       5.00060606       0.00000000       0.00000000      -0.45126754
2
Properties=species:S:1:pos:R:3:forces:R:3 energy=-33.6211764966516 pbc="F F F"
Zr       0.00000000       0.00000000       0.00000000       0.00000000       0.00000000       0.40905011
Zr       0.00000000       0.00000000       5.05939394       0.00000000       0.00000000      -0.40905011
2
Properties=species:S:1:pos:R:3:forces:R:3 energy=-33.59803065455292 pbc="F F F"
Zr       0.00000000       0.00000000       0.00000000       0.00000000       0.00000000       0.38063967
Zr       0.00000000       0.00000000       5.11818182       0.00000000       0.00000000      -0.38063967
2
Properties=species:S:1:pos:R:3:forces:R:3 energy=-33.57617568581924 pbc="F F F"
Zr       0.00000000       0.00000000       0.00000000       0.00000000       0.00000000       0.36476278
Zr       0.00000000       0.00000000       5.17696970       0.00000000       0.00000000      -0.36476278
2
Properties=species:S:1:pos:R:3:forces:R:3 energy=-33.55498235388713 pbc="F F F"
Zr       0.00000000       0.00000000       0.00000000       0.00000000       0.00000000       0.35721710
Zr       0.00000000       0.00000000       5.23575758       0.00000000       0.00000000      -0.35721710
2
Properties=species:S:1:pos:R:3:forces:R:3 energy=-33.53413430498061 pbc="F F F"
Zr       0.00000000       0.00000000       0.00000000       0.00000000       0.00000000       0.35178524
Zr       0.00000000       0.00000000       5.29454545       0.00000000       0.00000000      -0.35178524
2
Properties=species:S:1:pos:R:3:forces:R:3 energy=-33.513689117522574 pbc="F F F"
Zr       0.00000000       0.00000000       0.00000000       0.00000000       0.00000000       0.34296876
Zr       0.00000000       0.00000000       5.35333333       0.00000000       0.00000000      -0.34296876
2
Properties=species:S:1:pos:R:3:forces:R:3 energy=-33.49389136137792 pbc="F F F"
Zr       0.00000000       0.00000000       0.00000000       0.00000000       0.00000000       0.33003193
Zr       0.00000000       0.00000000       5.41212121       0.00000000       0.00000000      -0.33003193
2
Properties=species:S:1:pos:R:3:forces:R:3 energy=-33.47491703214369 pbc="F F F"
Zr       0.00000000       0.00000000       0.00000000       0.00000000       0.00000000       0.31509429
Zr       0.00000000       0.00000000       5.47090909       0.00000000       0.00000000      -0.31509429
2
Properties=species:S:1:pos:R:3:forces:R:3 energy=-33.456968918580735 pbc="F F F"
Zr       0.00000000       0.00000000       0.00000000       0.00000000       0.00000000       0.29360348
Zr       0.00000000       0.00000000       5.52969697       0.00000000       0.00000000      -0.29360348
2
Properties=species:S:1:pos:R:3:forces:R:3 energy=-33.44067329945109 pbc="F F F"
Zr       0.00000000       0.00000000       0.00000000       0.00000000       0.00000000       0.25839415
Zr       0.00000000       0.00000000       5.58848485       0.00000000       0.00000000      -0.25839415
2
Properties=species:S:1:pos:R:3:forces:R:3 energy=-33.42681296697845 pbc="F F F"
Zr       0.00000000       0.00000000       0.00000000       0.00000000       0.00000000       0.21221924
Zr       0.00000000       0.00000000       5.64727273       0.00000000       0.00000000      -0.21221924
2
Properties=species:S:1:pos:R:3:forces:R:3 energy=-33.41568629593504 pbc="F F F"
Zr       0.00000000       0.00000000       0.00000000       0.00000000       0.00000000       0.16792543
Zr       0.00000000       0.00000000       5.70606061       0.00000000       0.00000000      -0.16792543
2
Properties=species:S:1:pos:R:3:forces:R:3 energy=-33.40680590156451 pbc="F F F"
Zr       0.00000000       0.00000000       0.00000000       0.00000000       0.00000000       0.13564733
Zr       0.00000000       0.00000000       5.76484848       0.00000000       0.00000000      -0.13564733
2
Properties=species:S:1:pos:R:3:forces:R:3 energy=-33.39965776750568 pbc="F F F"
Zr       0.00000000       0.00000000       0.00000000       0.00000000       0.00000000       0.10663304
Zr       0.00000000       0.00000000       5.82363636       0.00000000       0.00000000      -0.10663304
2
Properties=species:S:1:pos:R:3:forces:R:3 energy=-33.39455570788567 pbc="F F F"
Zr       0.00000000       0.00000000       0.00000000       0.00000000       0.00000000       0.06535597
Zr       0.00000000       0.00000000       5.88242424       0.00000000       0.00000000      -0.06535597
2
Properties=species:S:1:pos:R:3:forces:R:3 energy=-33.39196998376904 pbc="F F F"
Zr       0.00000000       0.00000000       0.00000000       0.00000000       0.00000000       0.02463287
Zr       0.00000000       0.00000000       5.94121212       0.00000000       0.00000000      -0.02463287
2
Properties=species:S:1:pos:R:3:forces:R:3 energy=-33.39116545148214 pbc="F F F"
Zr       0.00000000       0.00000000       0.00000000       0.00000000       0.00000000       0.00819832
Zr       0.00000000       0.00000000       6.00000000       0.00000000       0.00000000      -0.00819832
