2
Properties=species:S:1:pos:R:3:forces:R:3 energy=1966.6864718514712 pbc="F F F"
Ar       0.00000000       0.00000000       0.00000000       0.00000000       0.00000000  -29324.14062500
Ar       0.00000000       0.00000000       0.18000000       0.00000000       0.00000000   29324.14062500
2
Properties=species:S:1:pos:R:3:forces:R:3 energy=883.3071993905337 pbc="F F F"
Ar       0.00000000       0.00000000       0.00000000       0.00000000       0.00000000  -11054.66308594
Ar       0.00000000       0.00000000       0.23878788       0.00000000       0.00000000   11054.66308594
2
Properties=species:S:1:pos:R:3:forces:R:3 energy=443.9329318155766 pbc="F F F"
Ar       0.00000000       0.00000000       0.00000000       0.00000000       0.00000000   -4882.36523438
Ar       0.00000000       0.00000000       0.29757576       0.00000000       0.00000000    4882.36523438
2
Properties=species:S:1:pos:R:3:forces:R:3 energy=240.08783905005862 pbc="F F F"
Ar       0.00000000       0.00000000       0.00000000       0.00000000       0.00000000   -2394.80712891
Ar       0.00000000       0.00000000       0.35636364       0.00000000       0.00000000    2394.80712891
2
Properties=species:S:1:pos:R:3:forces:R:3 energy=136.64049714853633 pbc="F F F"
Ar       0.00000000       0.00000000       0.00000000       0.00000000       0.00000000   -1262.13745117
Ar       0.00000000       0.00000000       0.41515152       0.00000000       0.00000000    1262.13745117
2
Properties=species:S:1:pos:R:3:forces:R:3 energy=80.77503392654643 pbc="F F F"
Ar       0.00000000       0.00000000       0.00000000       0.00000000       0.00000000    -700.25329590
Ar       0.00000000       0.00000000       0.47393939       0.00000000       0.00000000     700.25329590
2
Properties=species:S:1:pos:R:3:forces:R:3 energy=49.203867002467106 pbc="F F F"
Ar       0.00000000       0.00000000       0.00000000       0.00000000       0.00000000    -403.93145752
Ar       0.00000000       0.00000000       0.53272727       0.00000000       0.00000000     403.93145752
2
Properties=species:S:1:pos:R:3:forces:R:3 energy=30.721574944383555 pbc="F F F"
Ar       0.00000000       0.00000000       0.00000000       0.00000000       0.00000000    -240.41847229
Ar       0.00000000       0.00000000       0.59151515       0.00000000       0.00000000     240.41847229
2
Properties=species:S:1:pos:R:3:forces:R:3 energy=19.582880374437114 pbc="F F F"
Ar       0.00000000       0.00000000       0.00000000       0.00000000       0.00000000    -146.94483948
Ar       0.00000000       0.00000000       0.65030303       0.00000000       0.00000000     146.94483948
2
Properties=species:S:1:pos:R:3:forces:R:3 energy=12.699990930928411 pbc="F F F"
Ar       0.00000000       0.00000000       0.00000000       0.00000000       0.00000000     -91.92729950
Ar       0.00000000       0.00000000       0.70909091       0.00000000       0.00000000      91.92729950
2
Properties=species:S:1:pos:R:3:forces:R:3 energy=8.351873568229125 pbc="F F F"
Ar       0.00000000       0.00000000       0.00000000       0.00000000       0.00000000     -58.71260452
Ar       0.00000000       0.00000000       0.76787879       0.00000000       0.00000000      58.71260452
2
Properties=species:S:1:pos:R:3:forces:R:3 energy=5.550451653333105 pbc="F F F"
Ar       0.00000000       0.00000000       0.00000000       0.00000000       0.00000000     -38.19611359
Ar       0.00000000       0.00000000       0.82666667       0.00000000       0.00000000      38.19611359
2
Properties=species:S:1:pos:R:3:forces:R:3 energy=3.713875455142419 pbc="F F F"
Ar       0.00000000       0.00000000       0.00000000       0.00000000       0.00000000     -25.25322151
Ar       0.00000000       0.00000000       0.88545455       0.00000000       0.00000000      25.25322151
2
Properties=species:S:1:pos:R:3:forces:R:3 energy=2.4915724826321632 pbc="F F F"
Ar       0.00000000       0.00000000       0.00000000       0.00000000       0.00000000     -16.92723274
Ar       0.00000000       0.00000000       0.94424242       0.00000000       0.00000000      16.92723274
2
Properties=species:S:1:pos:R:3:forces:R:3 energy=1.6677722507854988 pbc="F F F"
Ar       0.00000000       0.00000000       0.00000000       0.00000000       0.00000000     -11.47469807
Ar       0.00000000       0.00000000       1.00303030       0.00000000       0.00000000      11.47469807
2
Properties=species:S:1:pos:R:3:forces:R:3 energy=1.106933464681938 pbc="F F F"
Ar       0.00000000       0.00000000       0.00000000       0.00000000       0.00000000      -7.84649134
Ar       0.00000000       0.00000000       1.06181818       0.00000000       0.00000000       7.84649134
2
Properties=species:S:1:pos:R:3:forces:R:3 energy=0.7222300948820083 pbc="F F F"
Ar       0.00000000       0.00000000       0.00000000       0.00000000       0.00000000      -5.39898539
Ar       0.00000000       0.00000000       1.12060606       0.00000000       0.00000000       5.39898539
2
Properties=species:S:1:pos:R:3:forces:R:3 energy=0.4569919215556728 pbc="F F F"
Ar       0.00000000       0.00000000       0.00000000       0.00000000       0.00000000      -3.72937083
Ar       0.00000000       0.00000000       1.17939394       0.00000000       0.00000000       3.72937083
2
Properties=species:S:1:pos:R:3:forces:R:3 energy=0.27360811816234043 pbc="F F F"
Ar       0.00000000       0.00000000       0.00000000       0.00000000       0.00000000      -2.58003759
Ar       0.00000000       0.00000000       1.23818182       0.00000000       0.00000000       2.58003759
2
Properties=species:S:1:pos:R:3:forces:R:3 energy=0.14677408227373012 pbc="F F F"
Ar       0.00000000       0.00000000       0.00000000       0.00000000       0.00000000      -1.78304160
Ar       0.00000000       0.00000000       1.29696970       0.00000000       0.00000000       1.78304160
2
Properties=species:S:1:pos:R:3:forces:R:3 energy=0.059259485203974546 pbc="F F F"
Ar       0.00000000       0.00000000       0.00000000       0.00000000       0.00000000      -1.22741306
Ar       0.00000000       0.00000000       1.35575758       0.00000000       0.00000000       1.22741306
2
Properties=species:S:1:pos:R:3:forces:R:3 energy=-0.0008020376044489755 pbc="F F F"
Ar       0.00000000       0.00000000       0.00000000       0.00000000       0.00000000      -0.83902711
Ar       0.00000000       0.00000000       1.41454545       0.00000000       0.00000000       0.83902711
2
Properties=species:S:1:pos:R:3:forces:R:3 energy=-0.041673666277091764 pbc="F F F"
Ar       0.00000000       0.00000000       0.00000000       0.00000000       0.00000000      -0.56769675
Ar       0.00000000       0.00000000       1.47333333       0.00000000       0.00000000       0.56769675
2
Properties=species:S:1:pos:R:3:forces:R:3 energy=-0.0691595216272092 pbc="F F F"
Ar       0.00000000       0.00000000       0.00000000       0.00000000       0.00000000      -0.37886819
Ar       0.00000000       0.00000000       1.53212121       0.00000000       0.00000000       0.37886819
2
Properties=species:S:1:pos:R:3:forces:R:3 energy=-0.0873578538517701 pbc="F F F"
Ar       0.00000000       0.00000000       0.00000000       0.00000000       0.00000000      -0.24836747
Ar       0.00000000       0.00000000       1.59090909       0.00000000       0.00000000       0.24836747
2
Properties=species:S:1:pos:R:3:forces:R:3 energy=-0.09916630494656023 pbc="F F F"
Ar       0.00000000       0.00000000       0.00000000       0.00000000       0.00000000      -0.15909353
Ar       0.00000000       0.00000000       1.64969697       0.00000000       0.00000000       0.15909353
2
Properties=species:S:1:pos:R:3:forces:R:3 energy=-0.10663037376762473 pbc="F F F"
Ar       0.00000000       0.00000000       0.00000000       0.00000000       0.00000000      -0.09887193
Ar       0.00000000       0.00000000       1.70848485       0.00000000       0.00000000       0.09887193
2
Properties=species:S:1:pos:R:3:forces:R:3 energy=-0.1111885606087496 pbc="F F F"
Ar       0.00000000       0.00000000       0.00000000       0.00000000       0.00000000      -0.05900884
Ar       0.00000000       0.00000000       1.76727273       0.00000000       0.00000000       0.05900884
2
Properties=species:S:1:pos:R:3:forces:R:3 energy=-0.11384459100875648 pbc="F F F"
Ar       0.00000000       0.00000000       0.00000000       0.00000000       0.00000000      -0.03329473
Ar       0.00000000       0.00000000       1.82606061       0.00000000       0.00000000       0.03329473
2
Properties=species:S:1:pos:R:3:forces:R:3 energy=-0.11529251369857248 pbc="F F F"
Ar       0.00000000       0.00000000       0.00000000       0.00000000       0.00000000      -0.01728411
Ar       0.00000000       0.00000000       1.88484848       0.00000000       0.00000000       0.01728411
2
Properties=species:S:1:pos:R:3:forces:R:3 energy=-0.11600416361281889 pbc="F F F"
Ar       0.00000000       0.00000000       0.00000000       0.00000000       0.00000000      -0.00780266
Ar       0.00000000       0.00000000       1.94363636       0.00000000       0.00000000       0.00780266
2
Properties=species:S:1:pos:R:3:forces:R:3 energy=-0.11629319041856334 pbc="F F F"
Ar       0.00000000       0.00000000       0.00000000       0.00000000       0.00000000      -0.00259340
Ar       0.00000000       0.00000000       2.00242424       0.00000000       0.00000000       0.00259340
2
Properties=species:S:1:pos:R:3:forces:R:3 energy=-0.11636133583230521 pbc="F F F"
Ar       0.00000000       0.00000000       0.00000000       0.00000000       0.00000000      -0.00006835
Ar       0.00000000       0.00000000       2.06121212       0.00000000       0.00000000       0.00006835
2
Properties=species:S:1:pos:R:3:forces:R:3 energy=-0.11633223737311849 pbc="F F F"
Ar       0.00000000       0.00000000       0.00000000       0.00000000       0.00000000       0.00086227
Ar       0.00000000       0.00000000       2.12000000       0.00000000       0.00000000      -0.00086227
2
Properties=species:S:1:pos:R:3:forces:R:3 energy=-0.11627058362837984 pbc="F F F"
Ar       0.00000000       0.00000000       0.00000000       0.00000000       0.00000000       0.00122220
Ar       0.00000000       0.00000000       2.17878788       0.00000000       0.00000000      -0.00122220
2
Properties=species:S:1:pos:R:3:forces:R:3 energy=-0.11619013060951609 pbc="F F F"
Ar       0.00000000       0.00000000       0.00000000       0.00000000       0.00000000       0.00150027
Ar       0.00000000       0.00000000       2.23757576       0.00000000       0.00000000      -0.00150027
2
Properties=species:S:1:pos:R:3:forces:R:3 energy=-0.11609607842456689 pbc="F F F"
Ar       0.00000000       0.00000000       0.00000000       0.00000000       0.00000000       0.00168177
Ar       0.00000000       0.00000000       2.29636364       0.00000000       0.00000000      -0.00168177
2
Properties=species:S:1:pos:R:3:forces:R:3 energy=-0.11599461623289217 pbc="F F F"
Ar       0.00000000       0.00000000       0.00000000       0.00000000       0.00000000       0.00175036
Ar       0.00000000       0.00000000       2.35515152       0.00000000       0.00000000      -0.00175036
2
Properties=species:S:1:pos:R:3:forces:R:3 energy=-0.11589257159890938 pbc="F F F"
Ar       0.00000000       0.00000000       0.00000000       0.00000000       0.00000000       0.00170261
Ar       0.00000000       0.00000000       2.41393939       0.00000000       0.00000000      -0.00170261
2
Properties=species:S:1:pos:R:3:forces:R:3 energy=-0.11579635849131943 pbc="F F F"
Ar       0.00000000       0.00000000       0.00000000       0.00000000       0.00000000       0.00155737
Ar       0.00000000       0.00000000       2.47272727       0.00000000       0.00000000      -0.00155737
2
Properties=species:S:1:pos:R:3:forces:R:3 energy=-0.11571058161767575 pbc="F F F"
Ar       0.00000000       0.00000000       0.00000000       0.00000000       0.00000000       0.00135578
Ar       0.00000000       0.00000000       2.53151515       0.00000000       0.00000000      -0.00135578
2
Properties=species:S:1:pos:R:3:forces:R:3 energy=-0.11563698524655859 pbc="F F F"
Ar       0.00000000       0.00000000       0.00000000       0.00000000       0.00000000       0.00115228
Ar       0.00000000       0.00000000       2.59030303       0.00000000       0.00000000      -0.00115228
2
Properties=species:S:1:pos:R:3:forces:R:3 energy=-0.11557405239814836 pbc="F F F"
Ar       0.00000000       0.00000000       0.00000000       0.00000000       0.00000000       0.00100173
Ar       0.00000000       0.00000000       2.64909091       0.00000000       0.00000000      -0.00100173
2
Properties=species:S:1:pos:R:3:forces:R:3 energy=-0.11551730632725968 pbc="F F F"
Ar       0.00000000       0.00000000       0.00000000       0.00000000       0.00000000       0.00094755
Ar       0.00000000       0.00000000       2.70787879       0.00000000       0.00000000      -0.00094755
2
Properties=species:S:1:pos:R:3:forces:R:3 energy=-0.11546025052643413 pbc="F F F"
Ar       0.00000000       0.00000000       0.00000000       0.00000000       0.00000000       0.00101480
Ar       0.00000000       0.00000000       2.76666667       0.00000000       0.00000000      -0.00101480
2
Properties=species:S:1:pos:R:3:forces:R:3 energy=-0.11539549528553605 pbc="F F F"
Ar       0.00000000       0.00000000       0.00000000       0.00000000       0.00000000       0.00120900
Ar       0.00000000       0.00000000       2.82545455       0.00000000       0.00000000      -0.00120900
2
Properties=species:S:1:pos:R:3:forces:R:3 energy=-0.11531581532022368 pbc="F F F"
Ar       0.00000000       0.00000000       0.00000000       0.00000000       0.00000000       0.00151941
Ar       0.00000000       0.00000000       2.88424242       0.00000000       0.00000000      -0.00151941
2
Properties=species:S:1:pos:R:3:forces:R:3 energy=-0.11521498910371057 pbc="F F F"
Ar       0.00000000       0.00000000       0.00000000       0.00000000       0.00000000       0.00192460
Ar       0.00000000       0.00000000       2.94303030       0.00000000       0.00000000      -0.00192460
2
Properties=species:S:1:pos:R:3:forces:R:3 energy=-0.11508819069471632 pbc="F F F"
Ar       0.00000000       0.00000000       0.00000000       0.00000000       0.00000000       0.00239842
Ar       0.00000000       0.00000000       3.00181818       0.00000000       0.00000000      -0.00239842
2
Properties=species:S:1:pos:R:3:forces:R:3 energy=-0.11493215916293571 pbc="F F F"
Ar       0.00000000       0.00000000       0.00000000       0.00000000       0.00000000       0.00291487
Ar       0.00000000       0.00000000       3.06060606       0.00000000       0.00000000      -0.00291487
2
Properties=species:S:1:pos:R:3:forces:R:3 energy=-0.1147450807866735 pbc="F F F"
Ar       0.00000000       0.00000000       0.00000000       0.00000000       0.00000000       0.00345136
Ar       0.00000000       0.00000000       3.11939394       0.00000000       0.00000000      -0.00345136
2
Properties=species:S:1:pos:R:3:forces:R:3 energy=-0.11452632446873981 pbc="F F F"
Ar       0.00000000       0.00000000       0.00000000       0.00000000       0.00000000       0.00399014
Ar       0.00000000       0.00000000       3.17818182       0.00000000       0.00000000      -0.00399014
2
Properties=species:S:1:pos:R:3:forces:R:3 energy=-0.11427613579367091 pbc="F F F"
Ar       0.00000000       0.00000000       0.00000000       0.00000000       0.00000000       0.00451853
Ar       0.00000000       0.00000000       3.23696970       0.00000000       0.00000000      -0.00451853
2
Properties=species:S:1:pos:R:3:forces:R:3 energy=-0.11399541750108177 pbc="F F F"
Ar       0.00000000       0.00000000       0.00000000       0.00000000       0.00000000       0.00502810
Ar       0.00000000       0.00000000       3.29575758       0.00000000       0.00000000      -0.00502810
2
Properties=species:S:1:pos:R:3:forces:R:3 energy=-0.11368543768308517 pbc="F F F"
Ar       0.00000000       0.00000000       0.00000000       0.00000000       0.00000000       0.00551345
Ar       0.00000000       0.00000000       3.35454545       0.00000000       0.00000000      -0.00551345
2
Properties=species:S:1:pos:R:3:forces:R:3 energy=-0.11334772096340234 pbc="F F F"
Ar       0.00000000       0.00000000       0.00000000       0.00000000       0.00000000       0.00597087
Ar       0.00000000       0.00000000       3.41333333       0.00000000       0.00000000      -0.00597087
2
Properties=species:S:1:pos:R:3:forces:R:3 energy=-0.11298401159843358 pbc="F F F"
Ar       0.00000000       0.00000000       0.00000000       0.00000000       0.00000000       0.00639715
Ar       0.00000000       0.00000000       3.47212121       0.00000000       0.00000000      -0.00639715
2
Properties=species:S:1:pos:R:3:forces:R:3 energy=-0.11259624649775415 pbc="F F F"
Ar       0.00000000       0.00000000       0.00000000       0.00000000       0.00000000       0.00678873
Ar       0.00000000       0.00000000       3.53090909       0.00000000       0.00000000      -0.00678873
2
Properties=species:S:1:pos:R:3:forces:R:3 energy=-0.11218658415047264 pbc="F F F"
Ar       0.00000000       0.00000000       0.00000000       0.00000000       0.00000000       0.00714140
Ar       0.00000000       0.00000000       3.58969697       0.00000000       0.00000000      -0.00714140
2
Properties=species:S:1:pos:R:3:forces:R:3 energy=-0.11175744751480096 pbc="F F F"
Ar       0.00000000       0.00000000       0.00000000       0.00000000       0.00000000       0.00745038
Ar       0.00000000       0.00000000       3.64848485       0.00000000       0.00000000      -0.00745038
2
Properties=species:S:1:pos:R:3:forces:R:3 energy=-0.11131155106851355 pbc="F F F"
Ar       0.00000000       0.00000000       0.00000000       0.00000000       0.00000000       0.00771083
Ar       0.00000000       0.00000000       3.70727273       0.00000000       0.00000000      -0.00771083
2
Properties=species:S:1:pos:R:3:forces:R:3 energy=-0.11085187963412739 pbc="F F F"
Ar       0.00000000       0.00000000       0.00000000       0.00000000       0.00000000       0.00791862
Ar       0.00000000       0.00000000       3.76606061       0.00000000       0.00000000      -0.00791862
2
Properties=species:S:1:pos:R:3:forces:R:3 energy=-0.11038160410863437 pbc="F F F"
Ar       0.00000000       0.00000000       0.00000000       0.00000000       0.00000000       0.00807109
Ar       0.00000000       0.00000000       3.82484848       0.00000000       0.00000000      -0.00807109
2
Properties=species:S:1:pos:R:3:forces:R:3 energy=-0.10990400939554733 pbc="F F F"
Ar       0.00000000       0.00000000       0.00000000       0.00000000       0.00000000       0.00816770
Ar       0.00000000       0.00000000       3.88363636       0.00000000       0.00000000      -0.00816770
2
Properties=species:S:1:pos:R:3:forces:R:3 energy=-0.10942233556684099 pbc="F F F"
Ar       0.00000000       0.00000000       0.00000000       0.00000000       0.00000000       0.00821036
Ar       0.00000000       0.00000000       3.94242424       0.00000000       0.00000000      -0.00821036
2
Properties=species:S:1:pos:R:3:forces:R:3 energy=-0.10893964173060808 pbc="F F F"
Ar       0.00000000       0.00000000       0.00000000       0.00000000       0.00000000       0.00820339
Ar       0.00000000       0.00000000       4.00121212       0.00000000       0.00000000      -0.00820339
2
Properties=species:S:1:pos:R:3:forces:R:3 energy=-0.10845866936775521 pbc="F F F"
Ar       0.00000000       0.00000000       0.00000000       0.00000000       0.00000000       0.00815308
Ar       0.00000000       0.00000000       4.06000000       0.00000000       0.00000000      -0.00815308
2
Properties=species:S:1:pos:R:3:forces:R:3 energy=-0.1079817413376907 pbc="F F F"
Ar       0.00000000       0.00000000       0.00000000       0.00000000       0.00000000       0.00806674
Ar       0.00000000       0.00000000       4.11878788       0.00000000       0.00000000      -0.00806674
2
Properties=species:S:1:pos:R:3:forces:R:3 energy=-0.10751077469560717 pbc="F F F"
Ar       0.00000000       0.00000000       0.00000000       0.00000000       0.00000000       0.00795179
Ar       0.00000000       0.00000000       4.17757576       0.00000000       0.00000000      -0.00795179
2
Properties=species:S:1:pos:R:3:forces:R:3 energy=-0.10704724340858582 pbc="F F F"
Ar       0.00000000       0.00000000       0.00000000       0.00000000       0.00000000       0.00781466
Ar       0.00000000       0.00000000       4.23636364       0.00000000       0.00000000      -0.00781466
2
Properties=species:S:1:pos:R:3:forces:R:3 energy=-0.1065922948350458 pbc="F F F"
Ar       0.00000000       0.00000000       0.00000000       0.00000000       0.00000000       0.00766016
Ar       0.00000000       0.00000000       4.29515152       0.00000000       0.00000000      -0.00766016
2
Properties=species:S:1:pos:R:3:forces:R:3 energy=-0.1061468707789402 pbc="F F F"
Ar       0.00000000       0.00000000       0.00000000       0.00000000       0.00000000       0.00749113
Ar       0.00000000       0.00000000       4.35393939       0.00000000       0.00000000      -0.00749113
2
Properties=species:S:1:pos:R:3:forces:R:3 energy=-0.1057117875392507 pbc="F F F"
Ar       0.00000000       0.00000000       0.00000000       0.00000000       0.00000000       0.00730870
Ar       0.00000000       0.00000000       4.41272727       0.00000000       0.00000000      -0.00730870
2
Properties=species:S:1:pos:R:3:forces:R:3 energy=-0.10528780988483334 pbc="F F F"
Ar       0.00000000       0.00000000       0.00000000       0.00000000       0.00000000       0.00711278
Ar       0.00000000       0.00000000       4.47151515       0.00000000       0.00000000      -0.00711278
2
Properties=species:S:1:pos:R:3:forces:R:3 energy=-0.10487576800284266 pbc="F F F"
Ar       0.00000000       0.00000000       0.00000000       0.00000000       0.00000000       0.00690279
Ar       0.00000000       0.00000000       4.53030303       0.00000000       0.00000000      -0.00690279
2
Properties=species:S:1:pos:R:3:forces:R:3 energy=-0.10447650113490611 pbc="F F F"
Ar       0.00000000       0.00000000       0.00000000       0.00000000       0.00000000       0.00667837
Ar       0.00000000       0.00000000       4.58909091       0.00000000       0.00000000      -0.00667837
2
Properties=species:S:1:pos:R:3:forces:R:3 energy=-0.10409083526738652 pbc="F F F"
Ar       0.00000000       0.00000000       0.00000000       0.00000000       0.00000000       0.00643974
Ar       0.00000000       0.00000000       4.64787879       0.00000000       0.00000000      -0.00643974
2
Properties=species:S:1:pos:R:3:forces:R:3 energy=-0.10371960109637568 pbc="F F F"
Ar       0.00000000       0.00000000       0.00000000       0.00000000       0.00000000       0.00618778
Ar       0.00000000       0.00000000       4.70666667       0.00000000       0.00000000      -0.00618778
2
Properties=species:S:1:pos:R:3:forces:R:3 energy=-0.10336353684716582 pbc="F F F"
Ar       0.00000000       0.00000000       0.00000000       0.00000000       0.00000000       0.00592374
Ar       0.00000000       0.00000000       4.76545455       0.00000000       0.00000000      -0.00592374
2
Properties=species:S:1:pos:R:3:forces:R:3 energy=-0.10302332661109614 pbc="F F F"
Ar       0.00000000       0.00000000       0.00000000       0.00000000       0.00000000       0.00564866
Ar       0.00000000       0.00000000       4.82424242       0.00000000       0.00000000      -0.00564866
2
Properties=species:S:1:pos:R:3:forces:R:3 energy=-0.10269960754614967 pbc="F F F"
Ar       0.00000000       0.00000000       0.00000000       0.00000000       0.00000000       0.00536270
Ar       0.00000000       0.00000000       4.88303030       0.00000000       0.00000000      -0.00536270
2
Properties=species:S:1:pos:R:3:forces:R:3 energy=-0.10239303534826755 pbc="F F F"
Ar       0.00000000       0.00000000       0.00000000       0.00000000       0.00000000       0.00506474
Ar       0.00000000       0.00000000       4.94181818       0.00000000       0.00000000      -0.00506474
2
Properties=species:S:1:pos:R:3:forces:R:3 energy=-0.10210438759053508 pbc="F F F"
Ar       0.00000000       0.00000000       0.00000000       0.00000000       0.00000000       0.00475281
Ar       0.00000000       0.00000000       5.00060606       0.00000000       0.00000000      -0.00475281
2
Properties=species:S:1:pos:R:3:forces:R:3 energy=-0.10183450597343399 pbc="F F F"
Ar       0.00000000       0.00000000       0.00000000       0.00000000       0.00000000       0.00442648
Ar       0.00000000       0.00000000       5.05939394       0.00000000       0.00000000      -0.00442648
2
Properties=species:S:1:pos:R:3:forces:R:3 energy=-0.10158410899738594 pbc="F F F"
Ar       0.00000000       0.00000000       0.00000000       0.00000000       0.00000000       0.00409192
Ar       0.00000000       0.00000000       5.11818182       0.00000000       0.00000000      -0.00409192
2
Properties=species:S:1:pos:R:3:forces:R:3 energy=-0.10135319309246565 pbc="F F F"
Ar       0.00000000       0.00000000       0.00000000       0.00000000       0.00000000       0.00376835
Ar       0.00000000       0.00000000       5.17696970       0.00000000       0.00000000      -0.00376835
2
Properties=species:S:1:pos:R:3:forces:R:3 energy=-0.10114025050542708 pbc="F F F"
Ar       0.00000000       0.00000000       0.00000000       0.00000000       0.00000000       0.00348518
Ar       0.00000000       0.00000000       5.23575758       0.00000000       0.00000000      -0.00348518
2
Properties=species:S:1:pos:R:3:forces:R:3 energy=-0.10094231340922027 pbc="F F F"
Ar       0.00000000       0.00000000       0.00000000       0.00000000       0.00000000       0.00325697
Ar       0.00000000       0.00000000       5.29454545       0.00000000       0.00000000      -0.00325697
2
Properties=species:S:1:pos:R:3:forces:R:3 energy=-0.10075678266104875 pbc="F F F"
Ar       0.00000000       0.00000000       0.00000000       0.00000000       0.00000000       0.00305441
Ar       0.00000000       0.00000000       5.35333333       0.00000000       0.00000000      -0.00305441
2
Properties=species:S:1:pos:R:3:forces:R:3 energy=-0.10058369250788499 pbc="F F F"
Ar       0.00000000       0.00000000       0.00000000       0.00000000       0.00000000       0.00282766
Ar       0.00000000       0.00000000       5.41212121       0.00000000       0.00000000      -0.00282766
2
Properties=species:S:1:pos:R:3:forces:R:3 energy=-0.1004249781267024 pbc="F F F"
Ar       0.00000000       0.00000000       0.00000000       0.00000000       0.00000000       0.00256967
Ar       0.00000000       0.00000000       5.47090909       0.00000000       0.00000000      -0.00256967
2
Properties=species:S:1:pos:R:3:forces:R:3 energy=-0.10028120840939056 pbc="F F F"
Ar       0.00000000       0.00000000       0.00000000       0.00000000       0.00000000       0.00233006
Ar       0.00000000       0.00000000       5.52969697       0.00000000       0.00000000      -0.00233006
2
Properties=species:S:1:pos:R:3:forces:R:3 energy=-0.10014951064257721 pbc="F F F"
Ar       0.00000000       0.00000000       0.00000000       0.00000000       0.00000000       0.00216523
Ar       0.00000000       0.00000000       5.58848485       0.00000000       0.00000000      -0.00216523
2
Properties=species:S:1:pos:R:3:forces:R:3 energy=-0.10002513908933124 pbc="F F F"
Ar       0.00000000       0.00000000       0.00000000       0.00000000       0.00000000       0.00207335
Ar       0.00000000       0.00000000       5.64727273       0.00000000       0.00000000      -0.00207335
2
Properties=species:S:1:pos:R:3:forces:R:3 energy=-0.09990581711973706 pbc="F F F"
Ar       0.00000000       0.00000000       0.00000000       0.00000000       0.00000000       0.00197812
Ar       0.00000000       0.00000000       5.70606061       0.00000000       0.00000000      -0.00197812
2
Properties=species:S:1:pos:R:3:forces:R:3 energy=-0.09979407748515762 pbc="F F F"
Ar       0.00000000       0.00000000       0.00000000       0.00000000       0.00000000       0.00180586
Ar       0.00000000       0.00000000       5.76484848       0.00000000       0.00000000      -0.00180586
2
Properties=species:S:1:pos:R:3:forces:R:3 energy=-0.09969497746485215 pbc="F F F"
Ar       0.00000000       0.00000000       0.00000000       0.00000000       0.00000000       0.00155885
Ar       0.00000000       0.00000000       5.82363636       0.00000000       0.00000000      -0.00155885
2
Properties=species:S:1:pos:R:3:forces:R:3 energy=-0.09961111088975436 pbc="F F F"
Ar       0.00000000       0.00000000       0.00000000       0.00000000       0.00000000       0.00129949
Ar       0.00000000       0.00000000       5.88242424       0.00000000       0.00000000      -0.00129949
2
Properties=species:S:1:pos:R:3:forces:R:3 energy=-0.0995411525804087 pbc="F F F"
Ar       0.00000000       0.00000000       0.00000000       0.00000000       0.00000000       0.00109197
Ar       0.00000000       0.00000000       5.94121212       0.00000000       0.00000000      -0.00109197
2
Properties=species:S:1:pos:R:3:forces:R:3 energy=-0.09948092021619577 pbc="F F F"
Ar       0.00000000       0.00000000       0.00000000       0.00000000       0.00000000       0.00097438
Ar       0.00000000       0.00000000       6.00000000       0.00000000       0.00000000      -0.00097438
