2
Properties=species:S:1:pos:R:3:forces:R:3 energy=20.22856367094644 pbc="F F F"
H        0.00000000       0.00000000       0.00000000       0.00000000       0.00000000    -180.35638428
H        0.00000000       0.00000000       0.18000000       0.00000000       0.00000000     180.35638428
2
Properties=species:S:1:pos:R:3:forces:R:3 energy=12.417569523088021 pbc="F F F"
H        0.00000000       0.00000000       0.00000000       0.00000000       0.00000000    -111.78078461
H        0.00000000       0.00000000       0.23878788       0.00000000       0.00000000     111.78078461
2
Properties=species:S:1:pos:R:3:forces:R:3 energy=6.53427827957113 pbc="F F F"
H        0.00000000       0.00000000       0.00000000       0.00000000       0.00000000     -85.71759796
H        0.00000000       0.00000000       0.29757576       0.00000000       0.00000000      85.71759796
2
Properties=species:S:1:pos:R:3:forces:R:3 energy=1.8495930520878474 pbc="F F F"
H        0.00000000       0.00000000       0.00000000       0.00000000       0.00000000     -72.51189423
H        0.00000000       0.00000000       0.35636364       0.00000000       0.00000000      72.51189423
2
Properties=species:S:1:pos:R:3:forces:R:3 energy=-1.6240904180245674 pbc="F F F"
H        0.00000000       0.00000000       0.00000000       0.00000000       0.00000000     -46.81792831
H        0.00000000       0.00000000       0.41515152       0.00000000       0.00000000      46.81792831
2
Properties=species:S:1:pos:R:3:forces:R:3 energy=-3.798726649335188 pbc="F F F"
H        0.00000000       0.00000000       0.00000000       0.00000000       0.00000000     -28.76773453
H        0.00000000       0.00000000       0.47393939       0.00000000       0.00000000      28.76773453
2
Properties=species:S:1:pos:R:3:forces:R:3 energy=-5.137329670237476 pbc="F F F"
H        0.00000000       0.00000000       0.00000000       0.00000000       0.00000000     -17.37400818
H        0.00000000       0.00000000       0.53272727       0.00000000       0.00000000      17.37400818
2
Properties=species:S:1:pos:R:3:forces:R:3 energy=-5.907932137447273 pbc="F F F"
H        0.00000000       0.00000000       0.00000000       0.00000000       0.00000000      -9.39743614
H        0.00000000       0.00000000       0.59151515       0.00000000       0.00000000       9.39743614
2
Properties=species:S:1:pos:R:3:forces:R:3 energy=-6.309124559611363 pbc="F F F"
H        0.00000000       0.00000000       0.00000000       0.00000000       0.00000000      -4.67973948
H        0.00000000       0.00000000       0.65030303       0.00000000       0.00000000       4.67973948
2
Properties=species:S:1:pos:R:3:forces:R:3 energy=-6.488141649751533 pbc="F F F"
H        0.00000000       0.00000000       0.00000000       0.00000000       0.00000000      -1.61581087
H        0.00000000       0.00000000       0.70909091       0.00000000       0.00000000       1.61581087
2
Properties=species:S:1:pos:R:3:forces:R:3 energy=-6.516023353284577 pbc="F F F"
H        0.00000000       0.00000000       0.00000000       0.00000000       0.00000000       0.58595675
H        0.00000000       0.00000000       0.76787879       0.00000000       0.00000000      -0.58595675
2
Properties=species:S:1:pos:R:3:forces:R:3 energy=-6.425361348116976 pbc="F F F"
H        0.00000000       0.00000000       0.00000000       0.00000000       0.00000000       2.45064282
H        0.00000000       0.00000000       0.82666667       0.00000000       0.00000000      -2.45064282
2
Properties=species:S:1:pos:R:3:forces:R:3 energy=-6.233463400099918 pbc="F F F"
H        0.00000000       0.00000000       0.00000000       0.00000000       0.00000000       4.04271650
H        0.00000000       0.00000000       0.88545455       0.00000000       0.00000000      -4.04271650
2
Properties=species:S:1:pos:R:3:forces:R:3 energy=-5.953349362658017 pbc="F F F"
H        0.00000000       0.00000000       0.00000000       0.00000000       0.00000000       5.45919180
H        0.00000000       0.00000000       0.94424242       0.00000000       0.00000000      -5.45919180
2
Properties=species:S:1:pos:R:3:forces:R:3 energy=-5.596119586394532 pbc="F F F"
H        0.00000000       0.00000000       0.00000000       0.00000000       0.00000000       6.63451529
H        0.00000000       0.00000000       1.00303030       0.00000000       0.00000000      -6.63451529
2
Properties=species:S:1:pos:R:3:forces:R:3 energy=-5.183209660860686 pbc="F F F"
H        0.00000000       0.00000000       0.00000000       0.00000000       0.00000000       7.31078768
H        0.00000000       0.00000000       1.06181818       0.00000000       0.00000000      -7.31078768
2
Properties=species:S:1:pos:R:3:forces:R:3 energy=-4.748697660653759 pbc="F F F"
H        0.00000000       0.00000000       0.00000000       0.00000000       0.00000000       7.37730217
H        0.00000000       0.00000000       1.12060606       0.00000000       0.00000000      -7.37730217
2
Properties=species:S:1:pos:R:3:forces:R:3 energy=-4.324798608707549 pbc="F F F"
H        0.00000000       0.00000000       0.00000000       0.00000000       0.00000000       6.98674631
H        0.00000000       0.00000000       1.17939394       0.00000000       0.00000000      -6.98674631
2
Properties=species:S:1:pos:R:3:forces:R:3 energy=-3.932039018062663 pbc="F F F"
H        0.00000000       0.00000000       0.00000000       0.00000000       0.00000000       6.34735298
H        0.00000000       0.00000000       1.23818182       0.00000000       0.00000000      -6.34735298
2
Properties=species:S:1:pos:R:3:forces:R:3 energy=-3.580740967908013 pbc="F F F"
H        0.00000000       0.00000000       0.00000000       0.00000000       0.00000000       5.59154177
H        0.00000000       0.00000000       1.29696970       0.00000000       0.00000000      -5.59154177
2
Properties=species:S:1:pos:R:3:forces:R:3 energy=-3.2755936116970905 pbc="F F F"
H        0.00000000       0.00000000       0.00000000       0.00000000       0.00000000       4.78488064
H        0.00000000       0.00000000       1.35575758       0.00000000       0.00000000      -4.78488064
2
Properties=species:S:1:pos:R:3:forces:R:3 energy=-3.0183146213719123 pbc="F F F"
H        0.00000000       0.00000000       0.00000000       0.00000000       0.00000000       3.96994662
H        0.00000000       0.00000000       1.41454545       0.00000000       0.00000000      -3.96994662
2
Properties=species:S:1:pos:R:3:forces:R:3 energy=-2.8081858615612685 pbc="F F F"
H        0.00000000       0.00000000       0.00000000       0.00000000       0.00000000       3.18745708
H        0.00000000       0.00000000       1.47333333       0.00000000       0.00000000      -3.18745708
2
Properties=species:S:1:pos:R:3:forces:R:3 energy=-2.6421725307221378 pbc="F F F"
H        0.00000000       0.00000000       0.00000000       0.00000000       0.00000000       2.47463059
H        0.00000000       0.00000000       1.53212121       0.00000000       0.00000000      -2.47463059
2
Properties=species:S:1:pos:R:3:forces:R:3 energy=-2.515345713305673 pbc="F F F"
H        0.00000000       0.00000000       0.00000000       0.00000000       0.00000000       1.85736620
H        0.00000000       0.00000000       1.59090909       0.00000000       0.00000000      -1.85736620
2
Properties=species:S:1:pos:R:3:forces:R:3 energy=-2.4216949471007148 pbc="F F F"
H        0.00000000       0.00000000       0.00000000       0.00000000       0.00000000       1.34663844
H        0.00000000       0.00000000       1.64969697       0.00000000       0.00000000      -1.34663844
2
Properties=species:S:1:pos:R:3:forces:R:3 energy=-2.3549648494709876 pbc="F F F"
H        0.00000000       0.00000000       0.00000000       0.00000000       0.00000000       0.94023252
H        0.00000000       0.00000000       1.70848485       0.00000000       0.00000000      -0.94023252
2
Properties=species:S:1:pos:R:3:forces:R:3 energy=-2.30931101993348 pbc="F F F"
H        0.00000000       0.00000000       0.00000000       0.00000000       0.00000000       0.62732905
H        0.00000000       0.00000000       1.76727273       0.00000000       0.00000000      -0.62732905
2
Properties=species:S:1:pos:R:3:forces:R:3 energy=-2.2796638946285923 pbc="F F F"
H        0.00000000       0.00000000       0.00000000       0.00000000       0.00000000       0.39308619
H        0.00000000       0.00000000       1.82606061       0.00000000       0.00000000      -0.39308619
2
Properties=species:S:1:pos:R:3:forces:R:3 energy=-2.2618557818451355 pbc="F F F"
H        0.00000000       0.00000000       0.00000000       0.00000000       0.00000000       0.22207221
H        0.00000000       0.00000000       1.88484848       0.00000000       0.00000000      -0.22207221
2
Properties=species:S:1:pos:R:3:forces:R:3 energy=-2.2525923325703023 pbc="F F F"
H        0.00000000       0.00000000       0.00000000       0.00000000       0.00000000       0.10022435
H        0.00000000       0.00000000       1.94363636       0.00000000       0.00000000      -0.10022435
2
Properties=species:S:1:pos:R:3:forces:R:3 energy=-2.249341383974807 pbc="F F F"
H        0.00000000       0.00000000       0.00000000       0.00000000       0.00000000       0.01573623
H        0.00000000       0.00000000       2.00242424       0.00000000       0.00000000      -0.01573623
2
Properties=species:S:1:pos:R:3:forces:R:3 energy=-2.2501956861441883 pbc="F F F"
H        0.00000000       0.00000000       0.00000000       0.00000000       0.00000000      -0.04080198
H        0.00000000       0.00000000       2.06121212       0.00000000       0.00000000       0.04080198
2
Properties=species:S:1:pos:R:3:forces:R:3 energy=-2.2537343864280417 pbc="F F F"
H        0.00000000       0.00000000       0.00000000       0.00000000       0.00000000      -0.07663710
H        0.00000000       0.00000000       2.12000000       0.00000000       0.00000000       0.07663710
2
Properties=species:S:1:pos:R:3:forces:R:3 energy=-2.2589086075289813 pbc="F F F"
H        0.00000000       0.00000000       0.00000000       0.00000000       0.00000000      -0.09724145
H        0.00000000       0.00000000       2.17878788       0.00000000       0.00000000       0.09724145
2
Properties=species:S:1:pos:R:3:forces:R:3 energy=-2.264949917338999 pbc="F F F"
H        0.00000000       0.00000000       0.00000000       0.00000000       0.00000000      -0.10671185
H        0.00000000       0.00000000       2.23757576       0.00000000       0.00000000       0.10671185
2
Properties=species:S:1:pos:R:3:forces:R:3 energy=-2.2712978754299726 pbc="F F F"
H        0.00000000       0.00000000       0.00000000       0.00000000       0.00000000      -0.10813201
H        0.00000000       0.00000000       2.29636364       0.00000000       0.00000000       0.10813201
2
Properties=species:S:1:pos:R:3:forces:R:3 energy=-2.2775519002191302 pbc="F F F"
H        0.00000000       0.00000000       0.00000000       0.00000000       0.00000000      -0.10384699
H        0.00000000       0.00000000       2.35515152       0.00000000       0.00000000       0.10384699
2
Properties=species:S:1:pos:R:3:forces:R:3 energy=-2.283431711283809 pbc="F F F"
H        0.00000000       0.00000000       0.00000000       0.00000000       0.00000000      -0.09565779
H        0.00000000       0.00000000       2.41393939       0.00000000       0.00000000       0.09565779
2
Properties=species:S:1:pos:R:3:forces:R:3 energy=-2.2887499401312335 pbc="F F F"
H        0.00000000       0.00000000       0.00000000       0.00000000       0.00000000      -0.08495232
H        0.00000000       0.00000000       2.47272727       0.00000000       0.00000000       0.08495232
2
Properties=species:S:1:pos:R:3:forces:R:3 energy=-2.2933914036212473 pbc="F F F"
H        0.00000000       0.00000000       0.00000000       0.00000000       0.00000000      -0.07278579
H        0.00000000       0.00000000       2.53151515       0.00000000       0.00000000       0.07278579
2
Properties=species:S:1:pos:R:3:forces:R:3 energy=-2.297294775434054 pbc="F F F"
H        0.00000000       0.00000000       0.00000000       0.00000000       0.00000000      -0.05994061
H        0.00000000       0.00000000       2.59030303       0.00000000       0.00000000       0.05994061
2
Properties=species:S:1:pos:R:3:forces:R:3 energy=-2.300436824309461 pbc="F F F"
H        0.00000000       0.00000000       0.00000000       0.00000000       0.00000000      -0.04697306
H        0.00000000       0.00000000       2.64909091       0.00000000       0.00000000       0.04697306
2
Properties=species:S:1:pos:R:3:forces:R:3 energy=-2.3028233988863662 pbc="F F F"
H        0.00000000       0.00000000       0.00000000       0.00000000       0.00000000      -0.03426606
H        0.00000000       0.00000000       2.70787879       0.00000000       0.00000000       0.03426606
2
Properties=species:S:1:pos:R:3:forces:R:3 energy=-2.304475778843058 pbc="F F F"
H        0.00000000       0.00000000       0.00000000       0.00000000       0.00000000      -0.02207663
H        0.00000000       0.00000000       2.76666667       0.00000000       0.00000000       0.02207663
2
Properties=species:S:1:pos:R:3:forces:R:3 energy=-2.305432119663892 pbc="F F F"
H        0.00000000       0.00000000       0.00000000       0.00000000       0.00000000      -0.01057320
H        0.00000000       0.00000000       2.82545455       0.00000000       0.00000000       0.01057320
2
Properties=species:S:1:pos:R:3:forces:R:3 energy=-2.305734523787062 pbc="F F F"
H        0.00000000       0.00000000       0.00000000       0.00000000       0.00000000       0.00013221
H        0.00000000       0.00000000       2.88424242       0.00000000       0.00000000      -0.00013221
2
Properties=species:S:1:pos:R:3:forces:R:3 energy=-2.305433057686472 pbc="F F F"
H        0.00000000       0.00000000       0.00000000       0.00000000       0.00000000       0.00996964
H        0.00000000       0.00000000       2.94303030       0.00000000       0.00000000      -0.00996964
2
Properties=species:S:1:pos:R:3:forces:R:3 energy=-2.304580457165772 pbc="F F F"
H        0.00000000       0.00000000       0.00000000       0.00000000       0.00000000       0.01890396
H        0.00000000       0.00000000       3.00181818       0.00000000       0.00000000      -0.01890396
2
Properties=species:S:1:pos:R:3:forces:R:3 energy=-2.3032287398030413 pbc="F F F"
H        0.00000000       0.00000000       0.00000000       0.00000000       0.00000000       0.02692533
H        0.00000000       0.00000000       3.06060606       0.00000000       0.00000000      -0.02692533
2
Properties=species:S:1:pos:R:3:forces:R:3 energy=-2.3014320174664618 pbc="F F F"
H        0.00000000       0.00000000       0.00000000       0.00000000       0.00000000       0.03404479
H        0.00000000       0.00000000       3.11939394       0.00000000       0.00000000      -0.03404479
2
Properties=species:S:1:pos:R:3:forces:R:3 energy=-2.2992431172725207 pbc="F F F"
H        0.00000000       0.00000000       0.00000000       0.00000000       0.00000000       0.04027968
H        0.00000000       0.00000000       3.17818182       0.00000000       0.00000000      -0.04027968
2
Properties=species:S:1:pos:R:3:forces:R:3 energy=-2.2967132966400468 pbc="F F F"
H        0.00000000       0.00000000       0.00000000       0.00000000       0.00000000       0.04564160
H        0.00000000       0.00000000       3.23696970       0.00000000       0.00000000      -0.04564160
2
Properties=species:S:1:pos:R:3:forces:R:3 energy=-2.2938941357896736 pbc="F F F"
H        0.00000000       0.00000000       0.00000000       0.00000000       0.00000000       0.05012211
H        0.00000000       0.00000000       3.29575758       0.00000000       0.00000000      -0.05012211
2
Properties=species:S:1:pos:R:3:forces:R:3 energy=-2.2908379937921675 pbc="F F F"
H        0.00000000       0.00000000       0.00000000       0.00000000       0.00000000       0.05369191
H        0.00000000       0.00000000       3.35454545       0.00000000       0.00000000      -0.05369191
2
Properties=species:S:1:pos:R:3:forces:R:3 energy=-2.2875996677970236 pbc="F F F"
H        0.00000000       0.00000000       0.00000000       0.00000000       0.00000000       0.05631312
H        0.00000000       0.00000000       3.41333333       0.00000000       0.00000000      -0.05631312
2
Properties=species:S:1:pos:R:3:forces:R:3 energy=-2.2842356914379636 pbc="F F F"
H        0.00000000       0.00000000       0.00000000       0.00000000       0.00000000       0.05796396
H        0.00000000       0.00000000       3.47212121       0.00000000       0.00000000      -0.05796396
2
Properties=species:S:1:pos:R:3:forces:R:3 energy=-2.2808031439279723 pbc="F F F"
H        0.00000000       0.00000000       0.00000000       0.00000000       0.00000000       0.05866847
H        0.00000000       0.00000000       3.53090909       0.00000000       0.00000000      -0.05866847
2
Properties=species:S:1:pos:R:3:forces:R:3 energy=-2.2773546604941703 pbc="F F F"
H        0.00000000       0.00000000       0.00000000       0.00000000       0.00000000       0.05851685
H        0.00000000       0.00000000       3.58969697       0.00000000       0.00000000      -0.05851685
2
Properties=species:S:1:pos:R:3:forces:R:3 energy=-2.273936787008437 pbc="F F F"
H        0.00000000       0.00000000       0.00000000       0.00000000       0.00000000       0.05766125
H        0.00000000       0.00000000       3.64848485       0.00000000       0.00000000      -0.05766125
2
Properties=species:S:1:pos:R:3:forces:R:3 energy=-2.270585703797124 pbc="F F F"
H        0.00000000       0.00000000       0.00000000       0.00000000       0.00000000       0.05627845
H        0.00000000       0.00000000       3.70727273       0.00000000       0.00000000      -0.05627845
2
Properties=species:S:1:pos:R:3:forces:R:3 energy=-2.267327247716819 pbc="F F F"
H        0.00000000       0.00000000       0.00000000       0.00000000       0.00000000       0.05451618
H        0.00000000       0.00000000       3.76606061       0.00000000       0.00000000      -0.05451618
2
Properties=species:S:1:pos:R:3:forces:R:3 energy=-2.2641817003248126 pbc="F F F"
H        0.00000000       0.00000000       0.00000000       0.00000000       0.00000000       0.05244488
H        0.00000000       0.00000000       3.82484848       0.00000000       0.00000000      -0.05244488
2
Properties=species:S:1:pos:R:3:forces:R:3 energy=-2.2611678559431065 pbc="F F F"
H        0.00000000       0.00000000       0.00000000       0.00000000       0.00000000       0.05002604
H        0.00000000       0.00000000       3.88363636       0.00000000       0.00000000      -0.05002604
2
Properties=species:S:1:pos:R:3:forces:R:3 energy=-2.2583090029117225 pbc="F F F"
H        0.00000000       0.00000000       0.00000000       0.00000000       0.00000000       0.04714245
H        0.00000000       0.00000000       3.94242424       0.00000000       0.00000000      -0.04714245
2
Properties=species:S:1:pos:R:3:forces:R:3 energy=-2.255636985317064 pbc="F F F"
H        0.00000000       0.00000000       0.00000000       0.00000000       0.00000000       0.04365497
H        0.00000000       0.00000000       4.00121212       0.00000000       0.00000000      -0.04365497
2
Properties=species:S:1:pos:R:3:forces:R:3 energy=-2.2531898302894797 pbc="F F F"
H        0.00000000       0.00000000       0.00000000       0.00000000       0.00000000       0.03948598
H        0.00000000       0.00000000       4.06000000       0.00000000       0.00000000      -0.03948598
2
Properties=species:S:1:pos:R:3:forces:R:3 energy=-2.2510067525974655 pbc="F F F"
H        0.00000000       0.00000000       0.00000000       0.00000000       0.00000000       0.03467813
H        0.00000000       0.00000000       4.11878788       0.00000000       0.00000000      -0.03467813
2
Properties=species:S:1:pos:R:3:forces:R:3 energy=-2.2491212463000423 pbc="F F F"
H        0.00000000       0.00000000       0.00000000       0.00000000       0.00000000       0.02942133
H        0.00000000       0.00000000       4.17757576       0.00000000       0.00000000      -0.02942133
2
Properties=species:S:1:pos:R:3:forces:R:3 energy=-2.2475503611079066 pbc="F F F"
H        0.00000000       0.00000000       0.00000000       0.00000000       0.00000000       0.02402147
H        0.00000000       0.00000000       4.23636364       0.00000000       0.00000000      -0.02402147
2
Properties=species:S:1:pos:R:3:forces:R:3 energy=-2.2462920833923574 pbc="F F F"
H        0.00000000       0.00000000       0.00000000       0.00000000       0.00000000       0.01885158
H        0.00000000       0.00000000       4.29515152       0.00000000       0.00000000      -0.01885158
2
Properties=species:S:1:pos:R:3:forces:R:3 energy=-2.2453224816464825 pbc="F F F"
H        0.00000000       0.00000000       0.00000000       0.00000000       0.00000000       0.01426250
H        0.00000000       0.00000000       4.35393939       0.00000000       0.00000000      -0.01426250
2
Properties=species:S:1:pos:R:3:forces:R:3 energy=-2.244598803006351 pbc="F F F"
H        0.00000000       0.00000000       0.00000000       0.00000000       0.00000000       0.01052261
H        0.00000000       0.00000000       4.41272727       0.00000000       0.00000000      -0.01052261
2
Properties=species:S:1:pos:R:3:forces:R:3 energy=-2.244065675697869 pbc="F F F"
H        0.00000000       0.00000000       0.00000000       0.00000000       0.00000000       0.00777527
H        0.00000000       0.00000000       4.47151515       0.00000000       0.00000000      -0.00777527
2
Properties=species:S:1:pos:R:3:forces:R:3 energy=-2.2436648858814303 pbc="F F F"
H        0.00000000       0.00000000       0.00000000       0.00000000       0.00000000       0.00602064
H        0.00000000       0.00000000       4.53030303       0.00000000       0.00000000      -0.00602064
2
Properties=species:S:1:pos:R:3:forces:R:3 energy=-2.243340382709673 pbc="F F F"
H        0.00000000       0.00000000       0.00000000       0.00000000       0.00000000       0.00515125
H        0.00000000       0.00000000       4.58909091       0.00000000       0.00000000      -0.00515125
2
Properties=species:S:1:pos:R:3:forces:R:3 energy=-2.243045431033344 pbc="F F F"
H        0.00000000       0.00000000       0.00000000       0.00000000       0.00000000       0.00499095
H        0.00000000       0.00000000       4.64787879       0.00000000       0.00000000      -0.00499095
2
Properties=species:S:1:pos:R:3:forces:R:3 energy=-2.242743327448994 pbc="F F F"
H        0.00000000       0.00000000       0.00000000       0.00000000       0.00000000       0.00536193
H        0.00000000       0.00000000       4.70666667       0.00000000       0.00000000      -0.00536193
2
Properties=species:S:1:pos:R:3:forces:R:3 energy=-2.2424076364159333 pbc="F F F"
H        0.00000000       0.00000000       0.00000000       0.00000000       0.00000000       0.00611774
H        0.00000000       0.00000000       4.76545455       0.00000000       0.00000000      -0.00611774
2
Properties=species:S:1:pos:R:3:forces:R:3 energy=-2.242018375855951 pbc="F F F"
H        0.00000000       0.00000000       0.00000000       0.00000000       0.00000000       0.00715665
H        0.00000000       0.00000000       4.82424242       0.00000000       0.00000000      -0.00715665
2
Properties=species:S:1:pos:R:3:forces:R:3 energy=-2.2415622547056926 pbc="F F F"
H        0.00000000       0.00000000       0.00000000       0.00000000       0.00000000       0.00838521
H        0.00000000       0.00000000       4.88303030       0.00000000       0.00000000      -0.00838521
2
Properties=species:S:1:pos:R:3:forces:R:3 energy=-2.2410317172129566 pbc="F F F"
H        0.00000000       0.00000000       0.00000000       0.00000000       0.00000000       0.00965385
H        0.00000000       0.00000000       4.94181818       0.00000000       0.00000000      -0.00965385
2
Properties=species:S:1:pos:R:3:forces:R:3 energy=-2.2404316188301507 pbc="F F F"
H        0.00000000       0.00000000       0.00000000       0.00000000       0.00000000       0.01069113
H        0.00000000       0.00000000       5.00060606       0.00000000       0.00000000      -0.01069113
2
Properties=species:S:1:pos:R:3:forces:R:3 energy=-2.239786616447786 pbc="F F F"
H        0.00000000       0.00000000       0.00000000       0.00000000       0.00000000       0.01111121
H        0.00000000       0.00000000       5.05939394       0.00000000       0.00000000      -0.01111121
2
Properties=species:S:1:pos:R:3:forces:R:3 energy=-2.2391447428665128 pbc="F F F"
H        0.00000000       0.00000000       0.00000000       0.00000000       0.00000000       0.01054136
H        0.00000000       0.00000000       5.11818182       0.00000000       0.00000000      -0.01054136
2
Properties=species:S:1:pos:R:3:forces:R:3 energy=-2.2385690618251224 pbc="F F F"
H        0.00000000       0.00000000       0.00000000       0.00000000       0.00000000       0.00888785
H        0.00000000       0.00000000       5.17696970       0.00000000       0.00000000      -0.00888785
2
Properties=species:S:1:pos:R:3:forces:R:3 energy=-2.238112633183539 pbc="F F F"
H        0.00000000       0.00000000       0.00000000       0.00000000       0.00000000       0.00660072
H        0.00000000       0.00000000       5.23575758       0.00000000       0.00000000      -0.00660072
2
Properties=species:S:1:pos:R:3:forces:R:3 energy=-2.2377877562331543 pbc="F F F"
H        0.00000000       0.00000000       0.00000000       0.00000000       0.00000000       0.00457365
H        0.00000000       0.00000000       5.29454545       0.00000000       0.00000000      -0.00457365
2
Properties=species:S:1:pos:R:3:forces:R:3 energy=-2.237554763318275 pbc="F F F"
H        0.00000000       0.00000000       0.00000000       0.00000000       0.00000000       0.00355423
H        0.00000000       0.00000000       5.35333333       0.00000000       0.00000000      -0.00355423
2
Properties=species:S:1:pos:R:3:forces:R:3 energy=-2.2373472911289434 pbc="F F F"
H        0.00000000       0.00000000       0.00000000       0.00000000       0.00000000       0.00366492
H        0.00000000       0.00000000       5.41212121       0.00000000       0.00000000      -0.00366492
2
Properties=species:S:1:pos:R:3:forces:R:3 energy=-2.2371094739621515 pbc="F F F"
H        0.00000000       0.00000000       0.00000000       0.00000000       0.00000000       0.00449631
H        0.00000000       0.00000000       5.47090909       0.00000000       0.00000000      -0.00449631
2
Properties=species:S:1:pos:R:3:forces:R:3 energy=-2.2368171620225645 pbc="F F F"
H        0.00000000       0.00000000       0.00000000       0.00000000       0.00000000       0.00541177
H        0.00000000       0.00000000       5.52969697       0.00000000       0.00000000      -0.00541177
2
Properties=species:S:1:pos:R:3:forces:R:3 energy=-2.23647863601004 pbc="F F F"
H        0.00000000       0.00000000       0.00000000       0.00000000       0.00000000       0.00606833
H        0.00000000       0.00000000       5.58848485       0.00000000       0.00000000      -0.00606833
2
Properties=species:S:1:pos:R:3:forces:R:3 energy=-2.236107189156277 pbc="F F F"
H        0.00000000       0.00000000       0.00000000       0.00000000       0.00000000       0.00653487
H        0.00000000       0.00000000       5.64727273       0.00000000       0.00000000      -0.00653487
2
Properties=species:S:1:pos:R:3:forces:R:3 energy=-2.235718026570601 pbc="F F F"
H        0.00000000       0.00000000       0.00000000       0.00000000       0.00000000       0.00660352
H        0.00000000       0.00000000       5.70606061       0.00000000       0.00000000      -0.00660352
2
Properties=species:S:1:pos:R:3:forces:R:3 energy=-2.2353482922273713 pbc="F F F"
H        0.00000000       0.00000000       0.00000000       0.00000000       0.00000000       0.00577819
H        0.00000000       0.00000000       5.76484848       0.00000000       0.00000000      -0.00577819
2
Properties=species:S:1:pos:R:3:forces:R:3 energy=-2.2350561154277804 pbc="F F F"
H        0.00000000       0.00000000       0.00000000       0.00000000       0.00000000       0.00407145
H        0.00000000       0.00000000       5.82363636       0.00000000       0.00000000      -0.00407145
2
Properties=species:S:1:pos:R:3:forces:R:3 energy=-2.2348750716014423 pbc="F F F"
H        0.00000000       0.00000000       0.00000000       0.00000000       0.00000000       0.00212577
H        0.00000000       0.00000000       5.88242424       0.00000000       0.00000000      -0.00212577
2
Properties=species:S:1:pos:R:3:forces:R:3 energy=-2.234796778059473 pbc="F F F"
H        0.00000000       0.00000000       0.00000000       0.00000000       0.00000000       0.00065136
H        0.00000000       0.00000000       5.94121212       0.00000000       0.00000000      -0.00065136
2
Properties=species:S:1:pos:R:3:forces:R:3 energy=-2.234779953572581 pbc="F F F"
H        0.00000000       0.00000000       0.00000000       0.00000000       0.00000000       0.00010019
H        0.00000000       0.00000000       6.00000000       0.00000000       0.00000000      -0.00010019
