2
Properties=species:S:1:pos:R:3:forces:R:3 energy=9446.122260645547 pbc="F F F"
I        0.00000000       0.00000000       0.00000000       0.00000000       0.00000000 -157723.59375000
I        0.00000000       0.00000000       0.18000000       0.00000000       0.00000000  157723.59375000
2
Properties=species:S:1:pos:R:3:forces:R:3 energy=3858.0651317392967 pbc="F F F"
I        0.00000000       0.00000000       0.00000000       0.00000000       0.00000000  -53926.08593750
I        0.00000000       0.00000000       0.23878788       0.00000000       0.00000000   53926.08593750
2
Properties=species:S:1:pos:R:3:forces:R:3 energy=1797.539374903359 pbc="F F F"
I        0.00000000       0.00000000       0.00000000       0.00000000       0.00000000  -21717.29296875
I        0.00000000       0.00000000       0.29757576       0.00000000       0.00000000   21717.29296875
2
Properties=species:S:1:pos:R:3:forces:R:3 energy=927.9458690503196 pbc="F F F"
I        0.00000000       0.00000000       0.00000000       0.00000000       0.00000000   -9670.60351562
I        0.00000000       0.00000000       0.35636364       0.00000000       0.00000000    9670.60351562
2
Properties=species:S:1:pos:R:3:forces:R:3 energy=528.455573646499 pbc="F F F"
I        0.00000000       0.00000000       0.00000000       0.00000000       0.00000000   -4603.52783203
I        0.00000000       0.00000000       0.41515152       0.00000000       0.00000000    4603.52783203
2
Properties=species:S:1:pos:R:3:forces:R:3 energy=334.15512810886537 pbc="F F F"
I        0.00000000       0.00000000       0.00000000       0.00000000       0.00000000   -2292.51074219
I        0.00000000       0.00000000       0.47393939       0.00000000       0.00000000    2292.51074219
2
Properties=species:S:1:pos:R:3:forces:R:3 energy=236.15729489492608 pbc="F F F"
I        0.00000000       0.00000000       0.00000000       0.00000000       0.00000000   -1170.09045410
I        0.00000000       0.00000000       0.53272727       0.00000000       0.00000000    1170.09045410
2
Properties=species:S:1:pos:R:3:forces:R:3 energy=185.9989239802672 pbc="F F F"
I        0.00000000       0.00000000       0.00000000       0.00000000       0.00000000    -598.61193848
I        0.00000000       0.00000000       0.59151515       0.00000000       0.00000000     598.61193848
2
Properties=species:S:1:pos:R:3:forces:R:3 energy=160.4729993958525 pbc="F F F"
I        0.00000000       0.00000000       0.00000000       0.00000000       0.00000000    -301.97671509
I        0.00000000       0.00000000       0.65030303       0.00000000       0.00000000     301.97671509
2
Properties=species:S:1:pos:R:3:forces:R:3 energy=147.74164579131016 pbc="F F F"
I        0.00000000       0.00000000       0.00000000       0.00000000       0.00000000    -147.78543091
I        0.00000000       0.00000000       0.70909091       0.00000000       0.00000000     147.78543091
2
Properties=species:S:1:pos:R:3:forces:R:3 energy=141.6371233206509 pbc="F F F"
I        0.00000000       0.00000000       0.00000000       0.00000000       0.00000000     -69.45945740
I        0.00000000       0.00000000       0.76787879       0.00000000       0.00000000      69.45945740
2
Properties=species:S:1:pos:R:3:forces:R:3 energy=138.64127405656848 pbc="F F F"
I        0.00000000       0.00000000       0.00000000       0.00000000       0.00000000     -39.14315033
I        0.00000000       0.00000000       0.82666667       0.00000000       0.00000000      39.14315033
2
Properties=species:S:1:pos:R:3:forces:R:3 energy=136.3654871972331 pbc="F F F"
I        0.00000000       0.00000000       0.00000000       0.00000000       0.00000000     -43.08714676
I        0.00000000       0.00000000       0.88545455       0.00000000       0.00000000      43.08714676
2
Properties=species:S:1:pos:R:3:forces:R:3 energy=133.11054404332992 pbc="F F F"
I        0.00000000       0.00000000       0.00000000       0.00000000       0.00000000     -70.73696136
I        0.00000000       0.00000000       0.94424242       0.00000000       0.00000000      70.73696136
2
Properties=species:S:1:pos:R:3:forces:R:3 energy=127.7698009782897 pbc="F F F"
I        0.00000000       0.00000000       0.00000000       0.00000000       0.00000000    -112.73972321
I        0.00000000       0.00000000       1.00303030       0.00000000       0.00000000     112.73972321
2
Properties=species:S:1:pos:R:3:forces:R:3 energy=119.71461122755424 pbc="F F F"
I        0.00000000       0.00000000       0.00000000       0.00000000       0.00000000    -161.69554138
I        0.00000000       0.00000000       1.06181818       0.00000000       0.00000000     161.69554138
2
Properties=species:S:1:pos:R:3:forces:R:3 energy=108.86387441278758 pbc="F F F"
I        0.00000000       0.00000000       0.00000000       0.00000000       0.00000000    -204.99163818
I        0.00000000       0.00000000       1.12060606       0.00000000       0.00000000     204.99163818
2
Properties=species:S:1:pos:R:3:forces:R:3 energy=96.0897143631252 pbc="F F F"
I        0.00000000       0.00000000       0.00000000       0.00000000       0.00000000    -224.36839294
I        0.00000000       0.00000000       1.17939394       0.00000000       0.00000000     224.36839294
2
Properties=species:S:1:pos:R:3:forces:R:3 energy=83.07579361349511 pbc="F F F"
I        0.00000000       0.00000000       0.00000000       0.00000000       0.00000000    -214.54241943
I        0.00000000       0.00000000       1.23818182       0.00000000       0.00000000     214.54241943
2
Properties=species:S:1:pos:R:3:forces:R:3 energy=71.09194874806968 pbc="F F F"
I        0.00000000       0.00000000       0.00000000       0.00000000       0.00000000    -192.81347656
I        0.00000000       0.00000000       1.29696970       0.00000000       0.00000000     192.81347656
2
Properties=species:S:1:pos:R:3:forces:R:3 energy=60.3702775604759 pbc="F F F"
I        0.00000000       0.00000000       0.00000000       0.00000000       0.00000000    -172.38348389
I        0.00000000       0.00000000       1.35575758       0.00000000       0.00000000     172.38348389
2
Properties=species:S:1:pos:R:3:forces:R:3 energy=50.78981620949707 pbc="F F F"
I        0.00000000       0.00000000       0.00000000       0.00000000       0.00000000    -153.72412109
I        0.00000000       0.00000000       1.41454545       0.00000000       0.00000000     153.72412109
2
Properties=species:S:1:pos:R:3:forces:R:3 energy=42.27492710583356 pbc="F F F"
I        0.00000000       0.00000000       0.00000000       0.00000000       0.00000000    -136.18121338
I        0.00000000       0.00000000       1.47333333       0.00000000       0.00000000     136.18121338
2
Properties=species:S:1:pos:R:3:forces:R:3 energy=34.751334564130396 pbc="F F F"
I        0.00000000       0.00000000       0.00000000       0.00000000       0.00000000    -119.95139313
I        0.00000000       0.00000000       1.53212121       0.00000000       0.00000000     119.95139313
2
Properties=species:S:1:pos:R:3:forces:R:3 energy=28.162836944180576 pbc="F F F"
I        0.00000000       0.00000000       0.00000000       0.00000000       0.00000000    -104.17144012
I        0.00000000       0.00000000       1.59090909       0.00000000       0.00000000     104.17144012
2
Properties=species:S:1:pos:R:3:forces:R:3 energy=22.512062939867484 pbc="F F F"
I        0.00000000       0.00000000       0.00000000       0.00000000       0.00000000     -88.01549530
I        0.00000000       0.00000000       1.64969697       0.00000000       0.00000000      88.01549530
2
Properties=species:S:1:pos:R:3:forces:R:3 energy=17.800380516138613 pbc="F F F"
I        0.00000000       0.00000000       0.00000000       0.00000000       0.00000000     -72.62574768
I        0.00000000       0.00000000       1.70848485       0.00000000       0.00000000      72.62574768
2
Properties=species:S:1:pos:R:3:forces:R:3 energy=13.915102051913872 pbc="F F F"
I        0.00000000       0.00000000       0.00000000       0.00000000       0.00000000     -60.07933807
I        0.00000000       0.00000000       1.76727273       0.00000000       0.00000000      60.07933807
2
Properties=species:S:1:pos:R:3:forces:R:3 energy=10.683960140226445 pbc="F F F"
I        0.00000000       0.00000000       0.00000000       0.00000000       0.00000000     -50.20453644
I        0.00000000       0.00000000       1.82606061       0.00000000       0.00000000      50.20453644
2
Properties=species:S:1:pos:R:3:forces:R:3 energy=7.976830368864393 pbc="F F F"
I        0.00000000       0.00000000       0.00000000       0.00000000       0.00000000     -42.15786362
I        0.00000000       0.00000000       1.88484848       0.00000000       0.00000000      42.15786362
2
Properties=species:S:1:pos:R:3:forces:R:3 energy=5.699759193221594 pbc="F F F"
I        0.00000000       0.00000000       0.00000000       0.00000000       0.00000000     -35.50436783
I        0.00000000       0.00000000       1.94363636       0.00000000       0.00000000      35.50436783
2
Properties=species:S:1:pos:R:3:forces:R:3 energy=3.785464753899383 pbc="F F F"
I        0.00000000       0.00000000       0.00000000       0.00000000       0.00000000     -29.71454620
I        0.00000000       0.00000000       2.00242424       0.00000000       0.00000000      29.71454620
2
Properties=species:S:1:pos:R:3:forces:R:3 energy=2.1989349941250316 pbc="F F F"
I        0.00000000       0.00000000       0.00000000       0.00000000       0.00000000     -24.30599213
I        0.00000000       0.00000000       2.06121212       0.00000000       0.00000000      24.30599213
2
Properties=species:S:1:pos:R:3:forces:R:3 energy=0.9210989403091117 pbc="F F F"
I        0.00000000       0.00000000       0.00000000       0.00000000       0.00000000     -19.24417114
I        0.00000000       0.00000000       2.12000000       0.00000000       0.00000000      19.24417114
2
Properties=species:S:1:pos:R:3:forces:R:3 energy=-0.0757863205108212 pbc="F F F"
I        0.00000000       0.00000000       0.00000000       0.00000000       0.00000000     -14.79501534
I        0.00000000       0.00000000       2.17878788       0.00000000       0.00000000      14.79501534
2
Properties=species:S:1:pos:R:3:forces:R:3 energy=-0.8345129299321474 pbc="F F F"
I        0.00000000       0.00000000       0.00000000       0.00000000       0.00000000     -11.15785789
I        0.00000000       0.00000000       2.23757576       0.00000000       0.00000000      11.15785789
2
Properties=species:S:1:pos:R:3:forces:R:3 energy=-1.4034131217250603 pbc="F F F"
I        0.00000000       0.00000000       0.00000000       0.00000000       0.00000000      -8.31899071
I        0.00000000       0.00000000       2.29636364       0.00000000       0.00000000       8.31899071
2
Properties=species:S:1:pos:R:3:forces:R:3 energy=-1.8252299831122323 pbc="F F F"
I        0.00000000       0.00000000       0.00000000       0.00000000       0.00000000      -6.12286663
I        0.00000000       0.00000000       2.35515152       0.00000000       0.00000000       6.12286663
2
Properties=species:S:1:pos:R:3:forces:R:3 energy=-2.132316698857737 pbc="F F F"
I        0.00000000       0.00000000       0.00000000       0.00000000       0.00000000      -4.38791513
I        0.00000000       0.00000000       2.41393939       0.00000000       0.00000000       4.38791513
2
Properties=species:S:1:pos:R:3:forces:R:3 energy=-2.3474716454344686 pbc="F F F"
I        0.00000000       0.00000000       0.00000000       0.00000000       0.00000000      -2.97793722
I        0.00000000       0.00000000       2.47272727       0.00000000       0.00000000       2.97793722
2
Properties=species:S:1:pos:R:3:forces:R:3 energy=-2.487317937536992 pbc="F F F"
I        0.00000000       0.00000000       0.00000000       0.00000000       0.00000000      -1.81786084
I        0.00000000       0.00000000       2.53151515       0.00000000       0.00000000       1.81786084
2
Properties=species:S:1:pos:R:3:forces:R:3 energy=-2.5654437520605367 pbc="F F F"
I        0.00000000       0.00000000       0.00000000       0.00000000       0.00000000      -0.87451094
I        0.00000000       0.00000000       2.59030303       0.00000000       0.00000000       0.87451094
2
Properties=species:S:1:pos:R:3:forces:R:3 energy=-2.594030043418741 pbc="F F F"
I        0.00000000       0.00000000       0.00000000       0.00000000       0.00000000      -0.12941700
I        0.00000000       0.00000000       2.64909091       0.00000000       0.00000000       0.12941700
2
Properties=species:S:1:pos:R:3:forces:R:3 energy=-2.584087420737508 pbc="F F F"
I        0.00000000       0.00000000       0.00000000       0.00000000       0.00000000       0.44130784
I        0.00000000       0.00000000       2.70787879       0.00000000       0.00000000      -0.44130784
2
Properties=species:S:1:pos:R:3:forces:R:3 energy=-2.544816374940691 pbc="F F F"
I        0.00000000       0.00000000       0.00000000       0.00000000       0.00000000       0.87590706
I        0.00000000       0.00000000       2.76666667       0.00000000       0.00000000      -0.87590706
2
Properties=species:S:1:pos:R:3:forces:R:3 energy=-2.4828447147638175 pbc="F F F"
I        0.00000000       0.00000000       0.00000000       0.00000000       0.00000000       1.22122598
I        0.00000000       0.00000000       2.82545455       0.00000000       0.00000000      -1.22122598
2
Properties=species:S:1:pos:R:3:forces:R:3 energy=-2.4022591267055544 pbc="F F F"
I        0.00000000       0.00000000       0.00000000       0.00000000       0.00000000       1.51295531
I        0.00000000       0.00000000       2.88424242       0.00000000       0.00000000      -1.51295531
2
Properties=species:S:1:pos:R:3:forces:R:3 energy=-2.3058705868039766 pbc="F F F"
I        0.00000000       0.00000000       0.00000000       0.00000000       0.00000000       1.75703752
I        0.00000000       0.00000000       2.94303030       0.00000000       0.00000000      -1.75703752
2
Properties=species:S:1:pos:R:3:forces:R:3 energy=-2.197041782024586 pbc="F F F"
I        0.00000000       0.00000000       0.00000000       0.00000000       0.00000000       1.93116844
I        0.00000000       0.00000000       3.00181818       0.00000000       0.00000000      -1.93116844
2
Properties=species:S:1:pos:R:3:forces:R:3 energy=-2.0807445568472462 pbc="F F F"
I        0.00000000       0.00000000       0.00000000       0.00000000       0.00000000       2.00747323
I        0.00000000       0.00000000       3.06060606       0.00000000       0.00000000      -2.00747323
2
Properties=species:S:1:pos:R:3:forces:R:3 energy=-1.9631158099773205 pbc="F F F"
I        0.00000000       0.00000000       0.00000000       0.00000000       0.00000000       1.97740149
I        0.00000000       0.00000000       3.11939394       0.00000000       0.00000000      -1.97740149
2
Properties=species:S:1:pos:R:3:forces:R:3 energy=-1.8499762267201294 pbc="F F F"
I        0.00000000       0.00000000       0.00000000       0.00000000       0.00000000       1.85980415
I        0.00000000       0.00000000       3.17818182       0.00000000       0.00000000      -1.85980415
2
Properties=species:S:1:pos:R:3:forces:R:3 energy=-1.7454696990097953 pbc="F F F"
I        0.00000000       0.00000000       0.00000000       0.00000000       0.00000000       1.69004679
I        0.00000000       0.00000000       3.23696970       0.00000000       0.00000000      -1.69004679
2
Properties=species:S:1:pos:R:3:forces:R:3 energy=-1.6515955443171564 pbc="F F F"
I        0.00000000       0.00000000       0.00000000       0.00000000       0.00000000       1.50314605
I        0.00000000       0.00000000       3.29575758       0.00000000       0.00000000      -1.50314605
2
Properties=species:S:1:pos:R:3:forces:R:3 energy=-1.568587347108382 pbc="F F F"
I        0.00000000       0.00000000       0.00000000       0.00000000       0.00000000       1.32333100
I        0.00000000       0.00000000       3.35454545       0.00000000       0.00000000      -1.32333100
2
Properties=species:S:1:pos:R:3:forces:R:3 energy=-1.495628125899592 pbc="F F F"
I        0.00000000       0.00000000       0.00000000       0.00000000       0.00000000       1.16237736
I        0.00000000       0.00000000       3.41333333       0.00000000       0.00000000      -1.16237736
2
Properties=species:S:1:pos:R:3:forces:R:3 energy=-1.4314968692952703 pbc="F F F"
I        0.00000000       0.00000000       0.00000000       0.00000000       0.00000000       1.02289951
I        0.00000000       0.00000000       3.47212121       0.00000000       0.00000000      -1.02289951
2
Properties=species:S:1:pos:R:3:forces:R:3 energy=-1.3749770033956645 pbc="F F F"
I        0.00000000       0.00000000       0.00000000       0.00000000       0.00000000       0.90294212
I        0.00000000       0.00000000       3.53090909       0.00000000       0.00000000      -0.90294212
2
Properties=species:S:1:pos:R:3:forces:R:3 energy=-1.3250028869736536 pbc="F F F"
I        0.00000000       0.00000000       0.00000000       0.00000000       0.00000000       0.79985410
I        0.00000000       0.00000000       3.58969697       0.00000000       0.00000000      -0.79985410
2
Properties=species:S:1:pos:R:3:forces:R:3 energy=-1.2806301289520448 pbc="F F F"
I        0.00000000       0.00000000       0.00000000       0.00000000       0.00000000       0.71226442
I        0.00000000       0.00000000       3.64848485       0.00000000       0.00000000      -0.71226442
2
Properties=species:S:1:pos:R:3:forces:R:3 energy=-1.240955446050237 pbc="F F F"
I        0.00000000       0.00000000       0.00000000       0.00000000       0.00000000       0.64010656
I        0.00000000       0.00000000       3.70727273       0.00000000       0.00000000      -0.64010656
2
Properties=species:S:1:pos:R:3:forces:R:3 energy=-1.2050625569664744 pbc="F F F"
I        0.00000000       0.00000000       0.00000000       0.00000000       0.00000000       0.58355743
I        0.00000000       0.00000000       3.76606061       0.00000000       0.00000000      -0.58355743
2
Properties=species:S:1:pos:R:3:forces:R:3 energy=-1.1720482357279853 pbc="F F F"
I        0.00000000       0.00000000       0.00000000       0.00000000       0.00000000       0.54202771
I        0.00000000       0.00000000       3.82484848       0.00000000       0.00000000      -0.54202771
2
Properties=species:S:1:pos:R:3:forces:R:3 energy=-1.1410745233762696 pbc="F F F"
I        0.00000000       0.00000000       0.00000000       0.00000000       0.00000000       0.51368290
I        0.00000000       0.00000000       3.88363636       0.00000000       0.00000000      -0.51368290
2
Properties=species:S:1:pos:R:3:forces:R:3 energy=-1.1114492294196219 pbc="F F F"
I        0.00000000       0.00000000       0.00000000       0.00000000       0.00000000       0.49564508
I        0.00000000       0.00000000       3.94242424       0.00000000       0.00000000      -0.49564508
2
Properties=species:S:1:pos:R:3:forces:R:3 energy=-1.0826631711448198 pbc="F F F"
I        0.00000000       0.00000000       0.00000000       0.00000000       0.00000000       0.48454663
I        0.00000000       0.00000000       4.00121212       0.00000000       0.00000000      -0.48454663
2
Properties=species:S:1:pos:R:3:forces:R:3 energy=-1.0544065282964632 pbc="F F F"
I        0.00000000       0.00000000       0.00000000       0.00000000       0.00000000       0.47713411
I        0.00000000       0.00000000       4.06000000       0.00000000       0.00000000      -0.47713411
2
Properties=species:S:1:pos:R:3:forces:R:3 energy=-1.0265458272604855 pbc="F F F"
I        0.00000000       0.00000000       0.00000000       0.00000000       0.00000000       0.47067648
I        0.00000000       0.00000000       4.11878788       0.00000000       0.00000000      -0.47067648
2
Properties=species:S:1:pos:R:3:forces:R:3 energy=-0.9990872329384863 pbc="F F F"
I        0.00000000       0.00000000       0.00000000       0.00000000       0.00000000       0.46316636
I        0.00000000       0.00000000       4.17757576       0.00000000       0.00000000      -0.46316636
2
Properties=species:S:1:pos:R:3:forces:R:3 energy=-0.9721348352477974 pbc="F F F"
I        0.00000000       0.00000000       0.00000000       0.00000000       0.00000000       0.45330852
I        0.00000000       0.00000000       4.23636364       0.00000000       0.00000000      -0.45330852
2
Properties=species:S:1:pos:R:3:forces:R:3 energy=-0.9458479710278705 pbc="F F F"
I        0.00000000       0.00000000       0.00000000       0.00000000       0.00000000       0.44043863
I        0.00000000       0.00000000       4.29515152       0.00000000       0.00000000      -0.44043863
2
Properties=species:S:1:pos:R:3:forces:R:3 energy=-0.9204119480722509 pbc="F F F"
I        0.00000000       0.00000000       0.00000000       0.00000000       0.00000000       0.42442891
I        0.00000000       0.00000000       4.35393939       0.00000000       0.00000000      -0.42442891
2
Properties=species:S:1:pos:R:3:forces:R:3 energy=-0.8960011285106243 pbc="F F F"
I        0.00000000       0.00000000       0.00000000       0.00000000       0.00000000       0.40563360
I        0.00000000       0.00000000       4.41272727       0.00000000       0.00000000      -0.40563360
2
Properties=species:S:1:pos:R:3:forces:R:3 energy=-0.8727576915482785 pbc="F F F"
I        0.00000000       0.00000000       0.00000000       0.00000000       0.00000000       0.38485435
I        0.00000000       0.00000000       4.47151515       0.00000000       0.00000000      -0.38485435
2
Properties=species:S:1:pos:R:3:forces:R:3 energy=-0.8507659923814734 pbc="F F F"
I        0.00000000       0.00000000       0.00000000       0.00000000       0.00000000       0.36330503
I        0.00000000       0.00000000       4.53030303       0.00000000       0.00000000      -0.36330503
2
Properties=species:S:1:pos:R:3:forces:R:3 energy=-0.8300277427385302 pbc="F F F"
I        0.00000000       0.00000000       0.00000000       0.00000000       0.00000000       0.34251326
I        0.00000000       0.00000000       4.58909091       0.00000000       0.00000000      -0.34251326
2
Properties=species:S:1:pos:R:3:forces:R:3 energy=-0.8104474810177303 pbc="F F F"
I        0.00000000       0.00000000       0.00000000       0.00000000       0.00000000       0.32417023
I        0.00000000       0.00000000       4.64787879       0.00000000       0.00000000      -0.32417023
2
Properties=species:S:1:pos:R:3:forces:R:3 energy=-0.7918327479334281 pbc="F F F"
I        0.00000000       0.00000000       0.00000000       0.00000000       0.00000000       0.30987936
I        0.00000000       0.00000000       4.70666667       0.00000000       0.00000000      -0.30987936
2
Properties=species:S:1:pos:R:3:forces:R:3 energy=-0.7739080223315735 pbc="F F F"
I        0.00000000       0.00000000       0.00000000       0.00000000       0.00000000       0.30091992
I        0.00000000       0.00000000       4.76545455       0.00000000       0.00000000      -0.30091992
2
Properties=species:S:1:pos:R:3:forces:R:3 energy=-0.7563330271512386 pbc="F F F"
I        0.00000000       0.00000000       0.00000000       0.00000000       0.00000000       0.29798386
I        0.00000000       0.00000000       4.82424242       0.00000000       0.00000000      -0.29798386
2
Properties=species:S:1:pos:R:3:forces:R:3 energy=-0.7387570076652286 pbc="F F F"
I        0.00000000       0.00000000       0.00000000       0.00000000       0.00000000       0.30094686
I        0.00000000       0.00000000       4.88303030       0.00000000       0.00000000      -0.30094686
2
Properties=species:S:1:pos:R:3:forces:R:3 energy=-0.7208542821908797 pbc="F F F"
I        0.00000000       0.00000000       0.00000000       0.00000000       0.00000000       0.30873212
I        0.00000000       0.00000000       4.94181818       0.00000000       0.00000000      -0.30873212
2
Properties=species:S:1:pos:R:3:forces:R:3 energy=-0.7024005144445934 pbc="F F F"
I        0.00000000       0.00000000       0.00000000       0.00000000       0.00000000       0.31932214
I        0.00000000       0.00000000       5.00060606       0.00000000       0.00000000      -0.31932214
2
Properties=species:S:1:pos:R:3:forces:R:3 energy=-0.6833023392181764 pbc="F F F"
I        0.00000000       0.00000000       0.00000000       0.00000000       0.00000000       0.33027506
I        0.00000000       0.00000000       5.05939394       0.00000000       0.00000000      -0.33027506
2
Properties=species:S:1:pos:R:3:forces:R:3 energy=-0.6635922389632364 pbc="F F F"
I        0.00000000       0.00000000       0.00000000       0.00000000       0.00000000       0.34009150
I        0.00000000       0.00000000       5.11818182       0.00000000       0.00000000      -0.34009150
2
Properties=species:S:1:pos:R:3:forces:R:3 energy=-0.6433153636582606 pbc="F F F"
I        0.00000000       0.00000000       0.00000000       0.00000000       0.00000000       0.35014871
I        0.00000000       0.00000000       5.17696970       0.00000000       0.00000000      -0.35014871
2
Properties=species:S:1:pos:R:3:forces:R:3 energy=-0.6223355567036731 pbc="F F F"
I        0.00000000       0.00000000       0.00000000       0.00000000       0.00000000       0.36472994
I        0.00000000       0.00000000       5.23575758       0.00000000       0.00000000      -0.36472994
2
Properties=species:S:1:pos:R:3:forces:R:3 energy=-0.6003035551359001 pbc="F F F"
I        0.00000000       0.00000000       0.00000000       0.00000000       0.00000000       0.38558489
I        0.00000000       0.00000000       5.29454545       0.00000000       0.00000000      -0.38558489
2
Properties=species:S:1:pos:R:3:forces:R:3 energy=-0.5770123588551649 pbc="F F F"
I        0.00000000       0.00000000       0.00000000       0.00000000       0.00000000       0.40555707
I        0.00000000       0.00000000       5.35333333       0.00000000       0.00000000      -0.40555707
2
Properties=species:S:1:pos:R:3:forces:R:3 energy=-0.5528633355718298 pbc="F F F"
I        0.00000000       0.00000000       0.00000000       0.00000000       0.00000000       0.41328558
I        0.00000000       0.00000000       5.41212121       0.00000000       0.00000000      -0.41328558
2
Properties=species:S:1:pos:R:3:forces:R:3 energy=-0.5287179553364612 pbc="F F F"
I        0.00000000       0.00000000       0.00000000       0.00000000       0.00000000       0.40625709
I        0.00000000       0.00000000       5.47090909       0.00000000       0.00000000      -0.40625709
2
Properties=species:S:1:pos:R:3:forces:R:3 energy=-0.5051920217364982 pbc="F F F"
I        0.00000000       0.00000000       0.00000000       0.00000000       0.00000000       0.39448330
I        0.00000000       0.00000000       5.52969697       0.00000000       0.00000000      -0.39448330
2
Properties=species:S:1:pos:R:3:forces:R:3 energy=-0.48217142979888616 pbc="F F F"
I        0.00000000       0.00000000       0.00000000       0.00000000       0.00000000       0.39056554
I        0.00000000       0.00000000       5.58848485       0.00000000       0.00000000      -0.39056554
2
Properties=species:S:1:pos:R:3:forces:R:3 energy=-0.4591446993033431 pbc="F F F"
I        0.00000000       0.00000000       0.00000000       0.00000000       0.00000000       0.39224651
I        0.00000000       0.00000000       5.64727273       0.00000000       0.00000000      -0.39224651
2
Properties=species:S:1:pos:R:3:forces:R:3 energy=-0.43643403882012893 pbc="F F F"
I        0.00000000       0.00000000       0.00000000       0.00000000       0.00000000       0.37501356
I        0.00000000       0.00000000       5.70606061       0.00000000       0.00000000      -0.37501356
2
Properties=species:S:1:pos:R:3:forces:R:3 energy=-0.4158736774538553 pbc="F F F"
I        0.00000000       0.00000000       0.00000000       0.00000000       0.00000000       0.31536084
I        0.00000000       0.00000000       5.76484848       0.00000000       0.00000000      -0.31536084
2
Properties=species:S:1:pos:R:3:forces:R:3 energy=-0.40010746687040655 pbc="F F F"
I        0.00000000       0.00000000       0.00000000       0.00000000       0.00000000       0.21758369
I        0.00000000       0.00000000       5.82363636       0.00000000       0.00000000      -0.21758369
2
Properties=species:S:1:pos:R:3:forces:R:3 energy=-0.39047494346530326 pbc="F F F"
I        0.00000000       0.00000000       0.00000000       0.00000000       0.00000000       0.11271828
I        0.00000000       0.00000000       5.88242424       0.00000000       0.00000000      -0.11271828
2
Properties=species:S:1:pos:R:3:forces:R:3 energy=-0.38631605670947383 pbc="F F F"
I        0.00000000       0.00000000       0.00000000       0.00000000       0.00000000       0.03483712
I        0.00000000       0.00000000       5.94121212       0.00000000       0.00000000      -0.03483712
2
Properties=species:S:1:pos:R:3:forces:R:3 energy=-0.38539647452824943 pbc="F F F"
I        0.00000000       0.00000000       0.00000000       0.00000000       0.00000000       0.00598860
I        0.00000000       0.00000000       6.00000000       0.00000000       0.00000000      -0.00598860
