2
Properties=species:S:1:pos:R:3:forces:R:3 energy=5421.368739102446 pbc="F F F"
Kr       0.00000000       0.00000000       0.00000000       0.00000000       0.00000000  -87404.60937500
Kr       0.00000000       0.00000000       0.18000000       0.00000000       0.00000000   87404.60937500
2
Properties=species:S:1:pos:R:3:forces:R:3 energy=2276.5147351993637 pbc="F F F"
Kr       0.00000000       0.00000000       0.00000000       0.00000000       0.00000000  -31001.83007812
Kr       0.00000000       0.00000000       0.23878788       0.00000000       0.00000000   31001.83007812
2
Properties=species:S:1:pos:R:3:forces:R:3 energy=1073.2662000462815 pbc="F F F"
Kr       0.00000000       0.00000000       0.00000000       0.00000000       0.00000000  -12957.71582031
Kr       0.00000000       0.00000000       0.29757576       0.00000000       0.00000000   12957.71582031
2
Properties=species:S:1:pos:R:3:forces:R:3 energy=545.441248880742 pbc="F F F"
Kr       0.00000000       0.00000000       0.00000000       0.00000000       0.00000000   -6005.44335938
Kr       0.00000000       0.00000000       0.35636364       0.00000000       0.00000000    6005.44335938
2
Properties=species:S:1:pos:R:3:forces:R:3 energy=292.67940806993306 pbc="F F F"
Kr       0.00000000       0.00000000       0.00000000       0.00000000       0.00000000   -2984.89794922
Kr       0.00000000       0.00000000       0.41515152       0.00000000       0.00000000    2984.89794922
2
Properties=species:S:1:pos:R:3:forces:R:3 energy=163.97509291289657 pbc="F F F"
Kr       0.00000000       0.00000000       0.00000000       0.00000000       0.00000000   -1562.79333496
Kr       0.00000000       0.00000000       0.47393939       0.00000000       0.00000000    1562.79333496
2
Properties=species:S:1:pos:R:3:forces:R:3 energy=95.25800616525389 pbc="F F F"
Kr       0.00000000       0.00000000       0.00000000       0.00000000       0.00000000    -853.64404297
Kr       0.00000000       0.00000000       0.53272727       0.00000000       0.00000000     853.64404297
2
Properties=species:S:1:pos:R:3:forces:R:3 energy=57.07943645391609 pbc="F F F"
Kr       0.00000000       0.00000000       0.00000000       0.00000000       0.00000000    -483.77563477
Kr       0.00000000       0.00000000       0.59151515       0.00000000       0.00000000     483.77563477
2
Properties=species:S:1:pos:R:3:forces:R:3 energy=35.11170511747018 pbc="F F F"
Kr       0.00000000       0.00000000       0.00000000       0.00000000       0.00000000    -283.30010986
Kr       0.00000000       0.00000000       0.65030303       0.00000000       0.00000000     283.30010986
2
Properties=species:S:1:pos:R:3:forces:R:3 energy=22.070302516109628 pbc="F F F"
Kr       0.00000000       0.00000000       0.00000000       0.00000000       0.00000000    -170.83497620
Kr       0.00000000       0.00000000       0.70909091       0.00000000       0.00000000     170.83497620
2
Properties=species:S:1:pos:R:3:forces:R:3 energy=14.110210297839645 pbc="F F F"
Kr       0.00000000       0.00000000       0.00000000       0.00000000       0.00000000    -105.69989777
Kr       0.00000000       0.00000000       0.76787879       0.00000000       0.00000000     105.69989777
2
Properties=species:S:1:pos:R:3:forces:R:3 energy=9.133785608450173 pbc="F F F"
Kr       0.00000000       0.00000000       0.00000000       0.00000000       0.00000000     -66.83766174
Kr       0.00000000       0.00000000       0.82666667       0.00000000       0.00000000      66.83766174
2
Properties=species:S:1:pos:R:3:forces:R:3 energy=5.960025408074708 pbc="F F F"
Kr       0.00000000       0.00000000       0.00000000       0.00000000       0.00000000     -43.02080154
Kr       0.00000000       0.00000000       0.88545455       0.00000000       0.00000000      43.02080154
2
Properties=species:S:1:pos:R:3:forces:R:3 energy=3.9033847987539696 pbc="F F F"
Kr       0.00000000       0.00000000       0.00000000       0.00000000       0.00000000     -28.07628632
Kr       0.00000000       0.00000000       0.94424242       0.00000000       0.00000000      28.07628632
2
Properties=species:S:1:pos:R:3:forces:R:3 energy=2.5545237164797747 pbc="F F F"
Kr       0.00000000       0.00000000       0.00000000       0.00000000       0.00000000     -18.50647545
Kr       0.00000000       0.00000000       1.00303030       0.00000000       0.00000000      18.50647545
2
Properties=species:S:1:pos:R:3:forces:R:3 energy=1.6625887367805379 pbc="F F F"
Kr       0.00000000       0.00000000       0.00000000       0.00000000       0.00000000     -12.27386189
Kr       0.00000000       0.00000000       1.06181818       0.00000000       0.00000000      12.27386189
2
Properties=species:S:1:pos:R:3:forces:R:3 energy=1.0702578021798146 pbc="F F F"
Kr       0.00000000       0.00000000       0.00000000       0.00000000       0.00000000      -8.15665054
Kr       0.00000000       0.00000000       1.12060606       0.00000000       0.00000000       8.15665054
2
Properties=species:S:1:pos:R:3:forces:R:3 energy=0.6770092022262015 pbc="F F F"
Kr       0.00000000       0.00000000       0.00000000       0.00000000       0.00000000      -5.40370178
Kr       0.00000000       0.00000000       1.17939394       0.00000000       0.00000000       5.40370178
2
Properties=species:S:1:pos:R:3:forces:R:3 energy=0.41748685974010213 pbc="F F F"
Kr       0.00000000       0.00000000       0.00000000       0.00000000       0.00000000      -3.54530001
Kr       0.00000000       0.00000000       1.23818182       0.00000000       0.00000000       3.54530001
2
Properties=species:S:1:pos:R:3:forces:R:3 energy=0.24871180615276467 pbc="F F F"
Kr       0.00000000       0.00000000       0.00000000       0.00000000       0.00000000      -2.27442217
Kr       0.00000000       0.00000000       1.29696970       0.00000000       0.00000000       2.27442217
2
Properties=species:S:1:pos:R:3:forces:R:3 energy=0.14277594751989348 pbc="F F F"
Kr       0.00000000       0.00000000       0.00000000       0.00000000       0.00000000      -1.37810349
Kr       0.00000000       0.00000000       1.35575758       0.00000000       0.00000000       1.37810349
2
Properties=species:S:1:pos:R:3:forces:R:3 energy=0.08213896078660947 pbc="F F F"
Kr       0.00000000       0.00000000       0.00000000       0.00000000       0.00000000      -0.71593231
Kr       0.00000000       0.00000000       1.41454545       0.00000000       0.00000000       0.71593231
2
Properties=species:S:1:pos:R:3:forces:R:3 energy=0.0554343962315095 pbc="F F F"
Kr       0.00000000       0.00000000       0.00000000       0.00000000       0.00000000      -0.21709116
Kr       0.00000000       0.00000000       1.47333333       0.00000000       0.00000000       0.21709116
2
Properties=species:S:1:pos:R:3:forces:R:3 energy=0.053795389383225645 pbc="F F F"
Kr       0.00000000       0.00000000       0.00000000       0.00000000       0.00000000       0.13728596
Kr       0.00000000       0.00000000       1.53212121       0.00000000       0.00000000      -0.13728596
2
Properties=species:S:1:pos:R:3:forces:R:3 energy=0.06871909699815729 pbc="F F F"
Kr       0.00000000       0.00000000       0.00000000       0.00000000       0.00000000       0.34611666
Kr       0.00000000       0.00000000       1.59090909       0.00000000       0.00000000      -0.34611666
2
Properties=species:S:1:pos:R:3:forces:R:3 energy=0.09171045576077258 pbc="F F F"
Kr       0.00000000       0.00000000       0.00000000       0.00000000       0.00000000       0.41362250
Kr       0.00000000       0.00000000       1.64969697       0.00000000       0.00000000      -0.41362250
2
Properties=species:S:1:pos:R:3:forces:R:3 energy=0.1149585131970394 pbc="F F F"
Kr       0.00000000       0.00000000       0.00000000       0.00000000       0.00000000       0.35957867
Kr       0.00000000       0.00000000       1.70848485       0.00000000       0.00000000      -0.35957867
2
Properties=species:S:1:pos:R:3:forces:R:3 energy=0.13229700533423608 pbc="F F F"
Kr       0.00000000       0.00000000       0.00000000       0.00000000       0.00000000       0.21958211
Kr       0.00000000       0.00000000       1.76727273       0.00000000       0.00000000      -0.21958211
2
Properties=species:S:1:pos:R:3:forces:R:3 energy=0.13997404638009714 pbc="F F F"
Kr       0.00000000       0.00000000       0.00000000       0.00000000       0.00000000       0.03859847
Kr       0.00000000       0.00000000       1.82606061       0.00000000       0.00000000      -0.03859847
2
Properties=species:S:1:pos:R:3:forces:R:3 energy=0.13688357766424794 pbc="F F F"
Kr       0.00000000       0.00000000       0.00000000       0.00000000       0.00000000      -0.14035825
Kr       0.00000000       0.00000000       1.88484848       0.00000000       0.00000000       0.14035825
2
Properties=species:S:1:pos:R:3:forces:R:3 energy=0.12412453503025472 pbc="F F F"
Kr       0.00000000       0.00000000       0.00000000       0.00000000       0.00000000      -0.28653339
Kr       0.00000000       0.00000000       1.94363636       0.00000000       0.00000000       0.28653339
2
Properties=species:S:1:pos:R:3:forces:R:3 energy=0.10413789149664343 pbc="F F F"
Kr       0.00000000       0.00000000       0.00000000       0.00000000       0.00000000      -0.38498986
Kr       0.00000000       0.00000000       2.00242424       0.00000000       0.00000000       0.38498986
2
Properties=species:S:1:pos:R:3:forces:R:3 energy=0.07983671274222848 pbc="F F F"
Kr       0.00000000       0.00000000       0.00000000       0.00000000       0.00000000      -0.43382472
Kr       0.00000000       0.00000000       2.06121212       0.00000000       0.00000000       0.43382472
2
Properties=species:S:1:pos:R:3:forces:R:3 energy=0.0539847241234058 pbc="F F F"
Kr       0.00000000       0.00000000       0.00000000       0.00000000       0.00000000      -0.43920481
Kr       0.00000000       0.00000000       2.12000000       0.00000000       0.00000000       0.43920481
2
Properties=species:S:1:pos:R:3:forces:R:3 energy=0.028853245699732022 pbc="F F F"
Kr       0.00000000       0.00000000       0.00000000       0.00000000       0.00000000      -0.41111806
Kr       0.00000000       0.00000000       2.17878788       0.00000000       0.00000000       0.41111806
2
Properties=species:S:1:pos:R:3:forces:R:3 energy=0.006087256314355773 pbc="F F F"
Kr       0.00000000       0.00000000       0.00000000       0.00000000       0.00000000      -0.36054897
Kr       0.00000000       0.00000000       2.23757576       0.00000000       0.00000000       0.36054897
2
Properties=species:S:1:pos:R:3:forces:R:3 energy=-0.013301718719617009 pbc="F F F"
Kr       0.00000000       0.00000000       0.00000000       0.00000000       0.00000000      -0.29784253
Kr       0.00000000       0.00000000       2.29636364       0.00000000       0.00000000       0.29784253
2
Properties=species:S:1:pos:R:3:forces:R:3 energy=-0.028868176342925267 pbc="F F F"
Kr       0.00000000       0.00000000       0.00000000       0.00000000       0.00000000      -0.23181021
Kr       0.00000000       0.00000000       2.35515152       0.00000000       0.00000000       0.23181021
2
Properties=species:S:1:pos:R:3:forces:R:3 energy=-0.040626409274278914 pbc="F F F"
Kr       0.00000000       0.00000000       0.00000000       0.00000000       0.00000000      -0.16925170
Kr       0.00000000       0.00000000       2.41393939       0.00000000       0.00000000       0.16925170
2
Properties=species:S:1:pos:R:3:forces:R:3 energy=-0.048929181136399935 pbc="F F F"
Kr       0.00000000       0.00000000       0.00000000       0.00000000       0.00000000      -0.11484131
Kr       0.00000000       0.00000000       2.47272727       0.00000000       0.00000000       0.11484131
2
Properties=species:S:1:pos:R:3:forces:R:3 energy=-0.05433878280593499 pbc="F F F"
Kr       0.00000000       0.00000000       0.00000000       0.00000000       0.00000000      -0.07107435
Kr       0.00000000       0.00000000       2.53151515       0.00000000       0.00000000       0.07107435
2
Properties=species:S:1:pos:R:3:forces:R:3 energy=-0.05750696108642793 pbc="F F F"
Kr       0.00000000       0.00000000       0.00000000       0.00000000       0.00000000      -0.03854683
Kr       0.00000000       0.00000000       2.59030303       0.00000000       0.00000000       0.03854683
2
Properties=species:S:1:pos:R:3:forces:R:3 energy=-0.059074811238509786 pbc="F F F"
Kr       0.00000000       0.00000000       0.00000000       0.00000000       0.00000000      -0.01638957
Kr       0.00000000       0.00000000       2.64909091       0.00000000       0.00000000       0.01638957
2
Properties=species:S:1:pos:R:3:forces:R:3 energy=-0.059601551482278005 pbc="F F F"
Kr       0.00000000       0.00000000       0.00000000       0.00000000       0.00000000      -0.00276722
Kr       0.00000000       0.00000000       2.70787879       0.00000000       0.00000000       0.00276722
2
Properties=species:S:1:pos:R:3:forces:R:3 energy=-0.05952290537251294 pbc="F F F"
Kr       0.00000000       0.00000000       0.00000000       0.00000000       0.00000000       0.00458972
Kr       0.00000000       0.00000000       2.76666667       0.00000000       0.00000000      -0.00458972
2
Properties=species:S:1:pos:R:3:forces:R:3 energy=-0.05914143076807631 pbc="F F F"
Kr       0.00000000       0.00000000       0.00000000       0.00000000       0.00000000       0.00786983
Kr       0.00000000       0.00000000       2.82545455       0.00000000       0.00000000      -0.00786983
2
Properties=species:S:1:pos:R:3:forces:R:3 energy=-0.058643447020067185 pbc="F F F"
Kr       0.00000000       0.00000000       0.00000000       0.00000000       0.00000000       0.00878615
Kr       0.00000000       0.00000000       2.88424242       0.00000000       0.00000000      -0.00878615
2
Properties=species:S:1:pos:R:3:forces:R:3 energy=-0.05813355873243546 pbc="F F F"
Kr       0.00000000       0.00000000       0.00000000       0.00000000       0.00000000       0.00839721
Kr       0.00000000       0.00000000       2.94303030       0.00000000       0.00000000      -0.00839721
2
Properties=species:S:1:pos:R:3:forces:R:3 energy=-0.05767253603566225 pbc="F F F"
Kr       0.00000000       0.00000000       0.00000000       0.00000000       0.00000000       0.00715802
Kr       0.00000000       0.00000000       3.00181818       0.00000000       0.00000000      -0.00715802
2
Properties=species:S:1:pos:R:3:forces:R:3 energy=-0.05730747157268867 pbc="F F F"
Kr       0.00000000       0.00000000       0.00000000       0.00000000       0.00000000       0.00512116
Kr       0.00000000       0.00000000       3.06060606       0.00000000       0.00000000      -0.00512116
2
Properties=species:S:1:pos:R:3:forces:R:3 energy=-0.05708819899470545 pbc="F F F"
Kr       0.00000000       0.00000000       0.00000000       0.00000000       0.00000000       0.00217890
Kr       0.00000000       0.00000000       3.11939394       0.00000000       0.00000000      -0.00217890
2
Properties=species:S:1:pos:R:3:forces:R:3 energy=-0.05707054628102756 pbc="F F F"
Kr       0.00000000       0.00000000       0.00000000       0.00000000       0.00000000      -0.00173908
Kr       0.00000000       0.00000000       3.17818182       0.00000000       0.00000000       0.00173908
2
Properties=species:S:1:pos:R:3:forces:R:3 energy=-0.05731025999411213 pbc="F F F"
Kr       0.00000000       0.00000000       0.00000000       0.00000000       0.00000000      -0.00654893
Kr       0.00000000       0.00000000       3.23696970       0.00000000       0.00000000       0.00654893
2
Properties=species:S:1:pos:R:3:forces:R:3 energy=-0.057852839546309945 pbc="F F F"
Kr       0.00000000       0.00000000       0.00000000       0.00000000       0.00000000      -0.01198161
Kr       0.00000000       0.00000000       3.29575758       0.00000000       0.00000000       0.01198161
2
Properties=species:S:1:pos:R:3:forces:R:3 energy=-0.058723104537638585 pbc="F F F"
Kr       0.00000000       0.00000000       0.00000000       0.00000000       0.00000000      -0.01761963
Kr       0.00000000       0.00000000       3.35454545       0.00000000       0.00000000       0.01761963
2
Properties=species:S:1:pos:R:3:forces:R:3 energy=-0.059918939993371285 pbc="F F F"
Kr       0.00000000       0.00000000       0.00000000       0.00000000       0.00000000      -0.02297586
Kr       0.00000000       0.00000000       3.41333333       0.00000000       0.00000000       0.02297586
2
Properties=species:S:1:pos:R:3:forces:R:3 energy=-0.061409871657246345 pbc="F F F"
Kr       0.00000000       0.00000000       0.00000000       0.00000000       0.00000000      -0.02758787
Kr       0.00000000       0.00000000       3.47212121       0.00000000       0.00000000       0.02758787
2
Properties=species:S:1:pos:R:3:forces:R:3 energy=-0.06314088820129887 pbc="F F F"
Kr       0.00000000       0.00000000       0.00000000       0.00000000       0.00000000      -0.03109814
Kr       0.00000000       0.00000000       3.53090909       0.00000000       0.00000000       0.03109814
2
Properties=species:S:1:pos:R:3:forces:R:3 energy=-0.06504056394262245 pbc="F F F"
Kr       0.00000000       0.00000000       0.00000000       0.00000000       0.00000000      -0.03330356
Kr       0.00000000       0.00000000       3.58969697       0.00000000       0.00000000       0.03330356
2
Properties=species:S:1:pos:R:3:forces:R:3 energy=-0.06703017964594292 pbc="F F F"
Kr       0.00000000       0.00000000       0.00000000       0.00000000       0.00000000      -0.03416375
Kr       0.00000000       0.00000000       3.64848485       0.00000000       0.00000000       0.03416375
2
Properties=species:S:1:pos:R:3:forces:R:3 energy=-0.06903281144447586 pbc="F F F"
Kr       0.00000000       0.00000000       0.00000000       0.00000000       0.00000000      -0.03377373
Kr       0.00000000       0.00000000       3.70727273       0.00000000       0.00000000       0.03377373
2
Properties=species:S:1:pos:R:3:forces:R:3 energy=-0.07098017352573549 pbc="F F F"
Kr       0.00000000       0.00000000       0.00000000       0.00000000       0.00000000      -0.03231407
Kr       0.00000000       0.00000000       3.76606061       0.00000000       0.00000000       0.03231407
2
Properties=species:S:1:pos:R:3:forces:R:3 energy=-0.07281537358991008 pbc="F F F"
Kr       0.00000000       0.00000000       0.00000000       0.00000000       0.00000000      -0.02999590
Kr       0.00000000       0.00000000       3.82484848       0.00000000       0.00000000       0.02999590
2
Properties=species:S:1:pos:R:3:forces:R:3 energy=-0.07449401753566037 pbc="F F F"
Kr       0.00000000       0.00000000       0.00000000       0.00000000       0.00000000      -0.02701489
Kr       0.00000000       0.00000000       3.88363636       0.00000000       0.00000000       0.02701489
2
Properties=species:S:1:pos:R:3:forces:R:3 energy=-0.07598172577991893 pbc="F F F"
Kr       0.00000000       0.00000000       0.00000000       0.00000000       0.00000000      -0.02352440
Kr       0.00000000       0.00000000       3.94242424       0.00000000       0.00000000       0.02352440
2
Properties=species:S:1:pos:R:3:forces:R:3 energy=-0.07725192205484151 pbc="F F F"
Kr       0.00000000       0.00000000       0.00000000       0.00000000       0.00000000      -0.01962825
Kr       0.00000000       0.00000000       4.00121212       0.00000000       0.00000000       0.01962825
2
Properties=species:S:1:pos:R:3:forces:R:3 energy=-0.07828291404562823 pbc="F F F"
Kr       0.00000000       0.00000000       0.00000000       0.00000000       0.00000000      -0.01539369
Kr       0.00000000       0.00000000       4.06000000       0.00000000       0.00000000       0.01539369
2
Properties=species:S:1:pos:R:3:forces:R:3 energy=-0.07905629093171929 pbc="F F F"
Kr       0.00000000       0.00000000       0.00000000       0.00000000       0.00000000      -0.01087544
Kr       0.00000000       0.00000000       4.11878788       0.00000000       0.00000000       0.01087544
2
Properties=species:S:1:pos:R:3:forces:R:3 energy=-0.07955737168704578 pbc="F F F"
Kr       0.00000000       0.00000000       0.00000000       0.00000000       0.00000000      -0.00614283
Kr       0.00000000       0.00000000       4.17757576       0.00000000       0.00000000       0.00614283
2
Properties=species:S:1:pos:R:3:forces:R:3 energy=-0.07977641536139485 pbc="F F F"
Kr       0.00000000       0.00000000       0.00000000       0.00000000       0.00000000      -0.00130188
Kr       0.00000000       0.00000000       4.23636364       0.00000000       0.00000000       0.00130188
2
Properties=species:S:1:pos:R:3:forces:R:3 energy=-0.07971124371577244 pbc="F F F"
Kr       0.00000000       0.00000000       0.00000000       0.00000000       0.00000000       0.00349672
Kr       0.00000000       0.00000000       4.29515152       0.00000000       0.00000000      -0.00349672
2
Properties=species:S:1:pos:R:3:forces:R:3 energy=-0.0793697896129555 pbc="F F F"
Kr       0.00000000       0.00000000       0.00000000       0.00000000       0.00000000       0.00806446
Kr       0.00000000       0.00000000       4.35393939       0.00000000       0.00000000      -0.00806446
2
Properties=species:S:1:pos:R:3:forces:R:3 energy=-0.07877161271516078 pbc="F F F"
Kr       0.00000000       0.00000000       0.00000000       0.00000000       0.00000000       0.01219638
Kr       0.00000000       0.00000000       4.41272727       0.00000000       0.00000000      -0.01219638
2
Properties=species:S:1:pos:R:3:forces:R:3 energy=-0.07794823138437006 pbc="F F F"
Kr       0.00000000       0.00000000       0.00000000       0.00000000       0.00000000       0.01569401
Kr       0.00000000       0.00000000       4.47151515       0.00000000       0.00000000      -0.01569401
2
Properties=species:S:1:pos:R:3:forces:R:3 energy=-0.07694217689657637 pbc="F F F"
Kr       0.00000000       0.00000000       0.00000000       0.00000000       0.00000000       0.01838598
Kr       0.00000000       0.00000000       4.53030303       0.00000000       0.00000000      -0.01838598
2
Properties=species:S:1:pos:R:3:forces:R:3 energy=-0.07580493502865338 pbc="F F F"
Kr       0.00000000       0.00000000       0.00000000       0.00000000       0.00000000       0.02013850
Kr       0.00000000       0.00000000       4.58909091       0.00000000       0.00000000      -0.02013850
2
Properties=species:S:1:pos:R:3:forces:R:3 energy=-0.07459463188763242 pbc="F F F"
Kr       0.00000000       0.00000000       0.00000000       0.00000000       0.00000000       0.02085975
Kr       0.00000000       0.00000000       4.64787879       0.00000000       0.00000000      -0.02085975
2
Properties=species:S:1:pos:R:3:forces:R:3 energy=-0.0733734619914867 pbc="F F F"
Kr       0.00000000       0.00000000       0.00000000       0.00000000       0.00000000       0.02050428
Kr       0.00000000       0.00000000       4.70666667       0.00000000       0.00000000      -0.02050428
2
Properties=species:S:1:pos:R:3:forces:R:3 energy=-0.07220463097823324 pbc="F F F"
Kr       0.00000000       0.00000000       0.00000000       0.00000000       0.00000000       0.01908990
Kr       0.00000000       0.00000000       4.76545455       0.00000000       0.00000000      -0.01908990
2
Properties=species:S:1:pos:R:3:forces:R:3 energy=-0.07114755959991553 pbc="F F F"
Kr       0.00000000       0.00000000       0.00000000       0.00000000       0.00000000       0.01672909
Kr       0.00000000       0.00000000       4.82424242       0.00000000       0.00000000      -0.01672909
2
Properties=species:S:1:pos:R:3:forces:R:3 energy=-0.07025155814868403 pbc="F F F"
Kr       0.00000000       0.00000000       0.00000000       0.00000000       0.00000000       0.01366625
Kr       0.00000000       0.00000000       4.88303030       0.00000000       0.00000000      -0.01366625
2
Properties=species:S:1:pos:R:3:forces:R:3 energy=-0.06954694986647407 pbc="F F F"
Kr       0.00000000       0.00000000       0.00000000       0.00000000       0.00000000       0.01029228
Kr       0.00000000       0.00000000       4.94181818       0.00000000       0.00000000      -0.01029228
2
Properties=species:S:1:pos:R:3:forces:R:3 energy=-0.0690378435278533 pbc="F F F"
Kr       0.00000000       0.00000000       0.00000000       0.00000000       0.00000000       0.00709923
Kr       0.00000000       0.00000000       5.00060606       0.00000000       0.00000000      -0.00709923
2
Properties=species:S:1:pos:R:3:forces:R:3 energy=-0.06869985281240786 pbc="F F F"
Kr       0.00000000       0.00000000       0.00000000       0.00000000       0.00000000       0.00452883
Kr       0.00000000       0.00000000       5.05939394       0.00000000       0.00000000      -0.00452883
2
Properties=species:S:1:pos:R:3:forces:R:3 energy=-0.06848986005612712 pbc="F F F"
Kr       0.00000000       0.00000000       0.00000000       0.00000000       0.00000000       0.00273264
Kr       0.00000000       0.00000000       5.11818182       0.00000000       0.00000000      -0.00273264
2
Properties=species:S:1:pos:R:3:forces:R:3 energy=-0.06836953223266375 pbc="F F F"
Kr       0.00000000       0.00000000       0.00000000       0.00000000       0.00000000       0.00138376
Kr       0.00000000       0.00000000       5.17696970       0.00000000       0.00000000      -0.00138376
2
Properties=species:S:1:pos:R:3:forces:R:3 energy=-0.0683308985465392 pbc="F F F"
Kr       0.00000000       0.00000000       0.00000000       0.00000000       0.00000000      -0.00014307
Kr       0.00000000       0.00000000       5.23575758       0.00000000       0.00000000       0.00014307
2
Properties=species:S:1:pos:R:3:forces:R:3 energy=-0.06839436634883232 pbc="F F F"
Kr       0.00000000       0.00000000       0.00000000       0.00000000       0.00000000      -0.00204181
Kr       0.00000000       0.00000000       5.29454545       0.00000000       0.00000000       0.00204181
2
Properties=species:S:1:pos:R:3:forces:R:3 energy=-0.06856388487707434 pbc="F F F"
Kr       0.00000000       0.00000000       0.00000000       0.00000000       0.00000000      -0.00357290
Kr       0.00000000       0.00000000       5.35333333       0.00000000       0.00000000       0.00357290
2
Properties=species:S:1:pos:R:3:forces:R:3 energy=-0.06879036837520974 pbc="F F F"
Kr       0.00000000       0.00000000       0.00000000       0.00000000       0.00000000      -0.00391459
Kr       0.00000000       0.00000000       5.41212121       0.00000000       0.00000000       0.00391459
2
Properties=species:S:1:pos:R:3:forces:R:3 energy=-0.06900443805051087 pbc="F F F"
Kr       0.00000000       0.00000000       0.00000000       0.00000000       0.00000000      -0.00327493
Kr       0.00000000       0.00000000       5.47090909       0.00000000       0.00000000       0.00327493
2
Properties=species:S:1:pos:R:3:forces:R:3 energy=-0.06917391662013335 pbc="F F F"
Kr       0.00000000       0.00000000       0.00000000       0.00000000       0.00000000      -0.00254483
Kr       0.00000000       0.00000000       5.52969697       0.00000000       0.00000000       0.00254483
2
Properties=species:S:1:pos:R:3:forces:R:3 energy=-0.06931352290239472 pbc="F F F"
Kr       0.00000000       0.00000000       0.00000000       0.00000000       0.00000000      -0.00228485
Kr       0.00000000       0.00000000       5.58848485       0.00000000       0.00000000       0.00228485
2
Properties=species:S:1:pos:R:3:forces:R:3 energy=-0.06944579188563782 pbc="F F F"
Kr       0.00000000       0.00000000       0.00000000       0.00000000       0.00000000      -0.00217205
Kr       0.00000000       0.00000000       5.64727273       0.00000000       0.00000000       0.00217205
2
Properties=species:S:1:pos:R:3:forces:R:3 energy=-0.06955659679395072 pbc="F F F"
Kr       0.00000000       0.00000000       0.00000000       0.00000000       0.00000000      -0.00146823
Kr       0.00000000       0.00000000       5.70606061       0.00000000       0.00000000       0.00146823
2
Properties=species:S:1:pos:R:3:forces:R:3 energy=-0.06960629245689244 pbc="F F F"
Kr       0.00000000       0.00000000       0.00000000       0.00000000       0.00000000      -0.00015918
Kr       0.00000000       0.00000000       5.76484848       0.00000000       0.00000000       0.00015918
2
Properties=species:S:1:pos:R:3:forces:R:3 energy=-0.06957741050866847 pbc="F F F"
Kr       0.00000000       0.00000000       0.00000000       0.00000000       0.00000000       0.00106806
Kr       0.00000000       0.00000000       5.82363636       0.00000000       0.00000000      -0.00106806
2
Properties=species:S:1:pos:R:3:forces:R:3 energy=-0.06949047088507757 pbc="F F F"
Kr       0.00000000       0.00000000       0.00000000       0.00000000       0.00000000       0.00179895
Kr       0.00000000       0.00000000       5.88242424       0.00000000       0.00000000      -0.00179895
2
Properties=species:S:1:pos:R:3:forces:R:3 energy=-0.06937437138232472 pbc="F F F"
Kr       0.00000000       0.00000000       0.00000000       0.00000000       0.00000000       0.00209688
Kr       0.00000000       0.00000000       5.94121212       0.00000000       0.00000000      -0.00209688
2
Properties=species:S:1:pos:R:3:forces:R:3 energy=-0.06924976731860122 pbc="F F F"
Kr       0.00000000       0.00000000       0.00000000       0.00000000       0.00000000       0.00209550
Kr       0.00000000       0.00000000       6.00000000       0.00000000       0.00000000      -0.00209550
