2
Properties=species:S:1:pos:R:3:forces:R:3 energy=1072.7340183720712 pbc="F F F"
Mg       0.00000000       0.00000000       0.00000000       0.00000000       0.00000000  -15170.75097656
Mg       0.00000000       0.00000000       0.18000000       0.00000000       0.00000000   15170.75097656
2
Properties=species:S:1:pos:R:3:forces:R:3 energy=503.61945538379 pbc="F F F"
Mg       0.00000000       0.00000000       0.00000000       0.00000000       0.00000000   -5919.86181641
Mg       0.00000000       0.00000000       0.23878788       0.00000000       0.00000000    5919.86181641
2
Properties=species:S:1:pos:R:3:forces:R:3 energy=265.367258118165 pbc="F F F"
Mg       0.00000000       0.00000000       0.00000000       0.00000000       0.00000000   -2689.27783203
Mg       0.00000000       0.00000000       0.29757576       0.00000000       0.00000000    2689.27783203
2
Properties=species:S:1:pos:R:3:forces:R:3 energy=151.76172833934442 pbc="F F F"
Mg       0.00000000       0.00000000       0.00000000       0.00000000       0.00000000   -1354.47778320
Mg       0.00000000       0.00000000       0.35636364       0.00000000       0.00000000    1354.47778320
2
Properties=species:S:1:pos:R:3:forces:R:3 energy=92.55591780514071 pbc="F F F"
Mg       0.00000000       0.00000000       0.00000000       0.00000000       0.00000000    -732.95031738
Mg       0.00000000       0.00000000       0.41515152       0.00000000       0.00000000     732.95031738
2
Properties=species:S:1:pos:R:3:forces:R:3 energy=59.735605324147635 pbc="F F F"
Mg       0.00000000       0.00000000       0.00000000       0.00000000       0.00000000    -417.01226807
Mg       0.00000000       0.00000000       0.47393939       0.00000000       0.00000000     417.01226807
2
Properties=species:S:1:pos:R:3:forces:R:3 energy=40.746957913895294 pbc="F F F"
Mg       0.00000000       0.00000000       0.00000000       0.00000000       0.00000000    -245.54644775
Mg       0.00000000       0.00000000       0.53272727       0.00000000       0.00000000     245.54644775
2
Properties=species:S:1:pos:R:3:forces:R:3 energy=29.442474576226736 pbc="F F F"
Mg       0.00000000       0.00000000       0.00000000       0.00000000       0.00000000    -147.81835938
Mg       0.00000000       0.00000000       0.59151515       0.00000000       0.00000000     147.81835938
2
Properties=species:S:1:pos:R:3:forces:R:3 energy=22.591408119919798 pbc="F F F"
Mg       0.00000000       0.00000000       0.00000000       0.00000000       0.00000000     -90.17579651
Mg       0.00000000       0.00000000       0.65030303       0.00000000       0.00000000      90.17579651
2
Properties=species:S:1:pos:R:3:forces:R:3 energy=18.39973886488473 pbc="F F F"
Mg       0.00000000       0.00000000       0.00000000       0.00000000       0.00000000     -55.23989487
Mg       0.00000000       0.00000000       0.70909091       0.00000000       0.00000000      55.23989487
2
Properties=species:S:1:pos:R:3:forces:R:3 energy=15.841436302333449 pbc="F F F"
Mg       0.00000000       0.00000000       0.00000000       0.00000000       0.00000000     -33.47433090
Mg       0.00000000       0.00000000       0.76787879       0.00000000       0.00000000      33.47433090
2
Properties=species:S:1:pos:R:3:forces:R:3 energy=14.304719343643882 pbc="F F F"
Mg       0.00000000       0.00000000       0.00000000       0.00000000       0.00000000     -19.90741348
Mg       0.00000000       0.00000000       0.82666667       0.00000000       0.00000000      19.90741348
2
Properties=species:S:1:pos:R:3:forces:R:3 energy=13.392764175451473 pbc="F F F"
Mg       0.00000000       0.00000000       0.00000000       0.00000000       0.00000000     -11.88215160
Mg       0.00000000       0.00000000       0.88545455       0.00000000       0.00000000      11.88215160
2
Properties=species:S:1:pos:R:3:forces:R:3 energy=12.833375986075659 pbc="F F F"
Mg       0.00000000       0.00000000       0.00000000       0.00000000       0.00000000      -7.65607405
Mg       0.00000000       0.00000000       0.94424242       0.00000000       0.00000000       7.65607405
2
Properties=species:S:1:pos:R:3:forces:R:3 energy=12.4454607009344 pbc="F F F"
Mg       0.00000000       0.00000000       0.00000000       0.00000000       0.00000000      -5.85162783
Mg       0.00000000       0.00000000       1.00303030       0.00000000       0.00000000       5.85162783
2
Properties=species:S:1:pos:R:3:forces:R:3 energy=12.116309369652207 pbc="F F F"
Mg       0.00000000       0.00000000       0.00000000       0.00000000       0.00000000      -5.54417992
Mg       0.00000000       0.00000000       1.06181818       0.00000000       0.00000000       5.54417992
2
Properties=species:S:1:pos:R:3:forces:R:3 energy=11.774373638020968 pbc="F F F"
Mg       0.00000000       0.00000000       0.00000000       0.00000000       0.00000000      -6.22406483
Mg       0.00000000       0.00000000       1.12060606       0.00000000       0.00000000       6.22406483
2
Properties=species:S:1:pos:R:3:forces:R:3 energy=11.371455911819295 pbc="F F F"
Mg       0.00000000       0.00000000       0.00000000       0.00000000       0.00000000      -7.56814909
Mg       0.00000000       0.00000000       1.17939394       0.00000000       0.00000000       7.56814909
2
Properties=species:S:1:pos:R:3:forces:R:3 energy=10.878600902514854 pbc="F F F"
Mg       0.00000000       0.00000000       0.00000000       0.00000000       0.00000000      -9.21251774
Mg       0.00000000       0.00000000       1.23818182       0.00000000       0.00000000       9.21251774
2
Properties=species:S:1:pos:R:3:forces:R:3 energy=10.290412917230393 pbc="F F F"
Mg       0.00000000       0.00000000       0.00000000       0.00000000       0.00000000     -10.75952435
Mg       0.00000000       0.00000000       1.29696970       0.00000000       0.00000000      10.75952435
2
Properties=species:S:1:pos:R:3:forces:R:3 energy=9.618558494632993 pbc="F F F"
Mg       0.00000000       0.00000000       0.00000000       0.00000000       0.00000000     -12.05500126
Mg       0.00000000       0.00000000       1.35575758       0.00000000       0.00000000      12.05500126
2
Properties=species:S:1:pos:R:3:forces:R:3 energy=8.878113584413462 pbc="F F F"
Mg       0.00000000       0.00000000       0.00000000       0.00000000       0.00000000     -13.08826256
Mg       0.00000000       0.00000000       1.41454545       0.00000000       0.00000000      13.08826256
2
Properties=species:S:1:pos:R:3:forces:R:3 energy=8.086316172958705 pbc="F F F"
Mg       0.00000000       0.00000000       0.00000000       0.00000000       0.00000000     -13.78178310
Mg       0.00000000       0.00000000       1.47333333       0.00000000       0.00000000      13.78178310
2
Properties=species:S:1:pos:R:3:forces:R:3 energy=7.267055679853619 pbc="F F F"
Mg       0.00000000       0.00000000       0.00000000       0.00000000       0.00000000     -13.99948597
Mg       0.00000000       0.00000000       1.53212121       0.00000000       0.00000000      13.99948597
2
Properties=species:S:1:pos:R:3:forces:R:3 energy=6.451536746883542 pbc="F F F"
Mg       0.00000000       0.00000000       0.00000000       0.00000000       0.00000000     -13.65060139
Mg       0.00000000       0.00000000       1.59090909       0.00000000       0.00000000      13.65060139
2
Properties=species:S:1:pos:R:3:forces:R:3 energy=5.671809975637615 pbc="F F F"
Mg       0.00000000       0.00000000       0.00000000       0.00000000       0.00000000     -12.81181812
Mg       0.00000000       0.00000000       1.64969697       0.00000000       0.00000000      12.81181812
2
Properties=species:S:1:pos:R:3:forces:R:3 energy=4.949945371510007 pbc="F F F"
Mg       0.00000000       0.00000000       0.00000000       0.00000000       0.00000000     -11.72900581
Mg       0.00000000       0.00000000       1.70848485       0.00000000       0.00000000      11.72900581
2
Properties=species:S:1:pos:R:3:forces:R:3 energy=4.292797574692007 pbc="F F F"
Mg       0.00000000       0.00000000       0.00000000       0.00000000       0.00000000     -10.63884640
Mg       0.00000000       0.00000000       1.76727273       0.00000000       0.00000000      10.63884640
2
Properties=species:S:1:pos:R:3:forces:R:3 energy=3.697266171646111 pbc="F F F"
Mg       0.00000000       0.00000000       0.00000000       0.00000000       0.00000000      -9.63727283
Mg       0.00000000       0.00000000       1.82606061       0.00000000       0.00000000       9.63727283
2
Properties=species:S:1:pos:R:3:forces:R:3 energy=3.158108119078299 pbc="F F F"
Mg       0.00000000       0.00000000       0.00000000       0.00000000       0.00000000      -8.71612644
Mg       0.00000000       0.00000000       1.88484848       0.00000000       0.00000000       8.71612644
2
Properties=species:S:1:pos:R:3:forces:R:3 energy=2.6713905851570208 pbc="F F F"
Mg       0.00000000       0.00000000       0.00000000       0.00000000       0.00000000      -7.85059166
Mg       0.00000000       0.00000000       1.94363636       0.00000000       0.00000000       7.85059166
2
Properties=species:S:1:pos:R:3:forces:R:3 energy=2.234122548458977 pbc="F F F"
Mg       0.00000000       0.00000000       0.00000000       0.00000000       0.00000000      -7.03350830
Mg       0.00000000       0.00000000       2.00242424       0.00000000       0.00000000       7.03350830
2
Properties=species:S:1:pos:R:3:forces:R:3 energy=1.843482572862696 pbc="F F F"
Mg       0.00000000       0.00000000       0.00000000       0.00000000       0.00000000      -6.26399660
Mg       0.00000000       0.00000000       2.06121212       0.00000000       0.00000000       6.26399660
2
Properties=species:S:1:pos:R:3:forces:R:3 energy=1.4967489940864165 pbc="F F F"
Mg       0.00000000       0.00000000       0.00000000       0.00000000       0.00000000      -5.53952217
Mg       0.00000000       0.00000000       2.12000000       0.00000000       0.00000000       5.53952217
2
Properties=species:S:1:pos:R:3:forces:R:3 energy=1.191280890551268 pbc="F F F"
Mg       0.00000000       0.00000000       0.00000000       0.00000000       0.00000000      -4.86053991
Mg       0.00000000       0.00000000       2.17878788       0.00000000       0.00000000       4.86053991
2
Properties=species:S:1:pos:R:3:forces:R:3 energy=0.9242890494898721 pbc="F F F"
Mg       0.00000000       0.00000000       0.00000000       0.00000000       0.00000000      -4.23137188
Mg       0.00000000       0.00000000       2.23757576       0.00000000       0.00000000       4.23137188
2
Properties=species:S:1:pos:R:3:forces:R:3 energy=0.6927316956638975 pbc="F F F"
Mg       0.00000000       0.00000000       0.00000000       0.00000000       0.00000000      -3.65524411
Mg       0.00000000       0.00000000       2.29636364       0.00000000       0.00000000       3.65524411
2
Properties=species:S:1:pos:R:3:forces:R:3 energy=0.4934969932827668 pbc="F F F"
Mg       0.00000000       0.00000000       0.00000000       0.00000000       0.00000000      -3.13133740
Mg       0.00000000       0.00000000       2.35515152       0.00000000       0.00000000       3.13133740
2
Properties=species:S:1:pos:R:3:forces:R:3 energy=0.32360137366349717 pbc="F F F"
Mg       0.00000000       0.00000000       0.00000000       0.00000000       0.00000000      -2.65657234
Mg       0.00000000       0.00000000       2.41393939       0.00000000       0.00000000       2.65657234
2
Properties=species:S:1:pos:R:3:forces:R:3 energy=0.18022534672078916 pbc="F F F"
Mg       0.00000000       0.00000000       0.00000000       0.00000000       0.00000000      -2.22902083
Mg       0.00000000       0.00000000       2.47272727       0.00000000       0.00000000       2.22902083
2
Properties=species:S:1:pos:R:3:forces:R:3 energy=0.06058884408209166 pbc="F F F"
Mg       0.00000000       0.00000000       0.00000000       0.00000000       0.00000000      -1.84916747
Mg       0.00000000       0.00000000       2.53151515       0.00000000       0.00000000       1.84916747
2
Properties=species:S:1:pos:R:3:forces:R:3 energy=-0.03815712513159722 pbc="F F F"
Mg       0.00000000       0.00000000       0.00000000       0.00000000       0.00000000      -1.51848555
Mg       0.00000000       0.00000000       2.59030303       0.00000000       0.00000000       1.51848555
2
Properties=species:S:1:pos:R:3:forces:R:3 energy=-0.11891294248767037 pbc="F F F"
Mg       0.00000000       0.00000000       0.00000000       0.00000000       0.00000000      -1.23691332
Mg       0.00000000       0.00000000       2.64909091       0.00000000       0.00000000       1.23691332
2
Properties=species:S:1:pos:R:3:forces:R:3 energy=-0.184492906429435 pbc="F F F"
Mg       0.00000000       0.00000000       0.00000000       0.00000000       0.00000000      -1.00140190
Mg       0.00000000       0.00000000       2.70787879       0.00000000       0.00000000       1.00140190
2
Properties=species:S:1:pos:R:3:forces:R:3 energy=-0.23744581723367805 pbc="F F F"
Mg       0.00000000       0.00000000       0.00000000       0.00000000       0.00000000      -0.80628079
Mg       0.00000000       0.00000000       2.76666667       0.00000000       0.00000000       0.80628079
2
Properties=species:S:1:pos:R:3:forces:R:3 energy=-0.27994867800234857 pbc="F F F"
Mg       0.00000000       0.00000000       0.00000000       0.00000000       0.00000000      -0.64469147
Mg       0.00000000       0.00000000       2.82545455       0.00000000       0.00000000       0.64469147
2
Properties=species:S:1:pos:R:3:forces:R:3 energy=-0.3137721525842163 pbc="F F F"
Mg       0.00000000       0.00000000       0.00000000       0.00000000       0.00000000      -0.50999027
Mg       0.00000000       0.00000000       2.88424242       0.00000000       0.00000000       0.50999027
2
Properties=species:S:1:pos:R:3:forces:R:3 energy=-0.340325244367597 pbc="F F F"
Mg       0.00000000       0.00000000       0.00000000       0.00000000       0.00000000      -0.39647314
Mg       0.00000000       0.00000000       2.94303030       0.00000000       0.00000000       0.39647314
2
Properties=species:S:1:pos:R:3:forces:R:3 energy=-0.3607136035259155 pbc="F F F"
Mg       0.00000000       0.00000000       0.00000000       0.00000000       0.00000000      -0.29960334
Mg       0.00000000       0.00000000       3.00181818       0.00000000       0.00000000       0.29960334
2
Properties=species:S:1:pos:R:3:forces:R:3 energy=-0.37581408024007446 pbc="F F F"
Mg       0.00000000       0.00000000       0.00000000       0.00000000       0.00000000      -0.21618028
Mg       0.00000000       0.00000000       3.06060606       0.00000000       0.00000000       0.21618028
2
Properties=species:S:1:pos:R:3:forces:R:3 energy=-0.3863600419014754 pbc="F F F"
Mg       0.00000000       0.00000000       0.00000000       0.00000000       0.00000000      -0.14448920
Mg       0.00000000       0.00000000       3.11939394       0.00000000       0.00000000       0.14448920
2
Properties=species:S:1:pos:R:3:forces:R:3 energy=-0.393018495219383 pbc="F F F"
Mg       0.00000000       0.00000000       0.00000000       0.00000000       0.00000000      -0.08380182
Mg       0.00000000       0.00000000       3.17818182       0.00000000       0.00000000       0.08380182
2
Properties=species:S:1:pos:R:3:forces:R:3 energy=-0.3963977324358545 pbc="F F F"
Mg       0.00000000       0.00000000       0.00000000       0.00000000       0.00000000      -0.03240909
Mg       0.00000000       0.00000000       3.23696970       0.00000000       0.00000000       0.03240909
2
Properties=species:S:1:pos:R:3:forces:R:3 energy=-0.3969152819214013 pbc="F F F"
Mg       0.00000000       0.00000000       0.00000000       0.00000000       0.00000000       0.01465822
Mg       0.00000000       0.00000000       3.29575758       0.00000000       0.00000000      -0.01465822
2
Properties=species:S:1:pos:R:3:forces:R:3 energy=-0.39463493511097897 pbc="F F F"
Mg       0.00000000       0.00000000       0.00000000       0.00000000       0.00000000       0.06352723
Mg       0.00000000       0.00000000       3.35454545       0.00000000       0.00000000      -0.06352723
2
Properties=species:S:1:pos:R:3:forces:R:3 energy=-0.38939631216864323 pbc="F F F"
Mg       0.00000000       0.00000000       0.00000000       0.00000000       0.00000000       0.11466609
Mg       0.00000000       0.00000000       3.41333333       0.00000000       0.00000000      -0.11466609
2
Properties=species:S:1:pos:R:3:forces:R:3 energy=-0.3812305717027808 pbc="F F F"
Mg       0.00000000       0.00000000       0.00000000       0.00000000       0.00000000       0.16186026
Mg       0.00000000       0.00000000       3.47212121       0.00000000       0.00000000      -0.16186026
2
Properties=species:S:1:pos:R:3:forces:R:3 energy=-0.3705657014416013 pbc="F F F"
Mg       0.00000000       0.00000000       0.00000000       0.00000000       0.00000000       0.19900228
Mg       0.00000000       0.00000000       3.53090909       0.00000000       0.00000000      -0.19900228
2
Properties=species:S:1:pos:R:3:forces:R:3 energy=-0.3580690234370858 pbc="F F F"
Mg       0.00000000       0.00000000       0.00000000       0.00000000       0.00000000       0.22420421
Mg       0.00000000       0.00000000       3.58969697       0.00000000       0.00000000      -0.22420421
2
Properties=species:S:1:pos:R:3:forces:R:3 energy=-0.34441362106750417 pbc="F F F"
Mg       0.00000000       0.00000000       0.00000000       0.00000000       0.00000000       0.23876789
Mg       0.00000000       0.00000000       3.64848485       0.00000000       0.00000000      -0.23876789
2
Properties=species:S:1:pos:R:3:forces:R:3 energy=-0.33015630287179243 pbc="F F F"
Mg       0.00000000       0.00000000       0.00000000       0.00000000       0.00000000       0.24513203
Mg       0.00000000       0.00000000       3.70727273       0.00000000       0.00000000      -0.24513203
2
Properties=species:S:1:pos:R:3:forces:R:3 energy=-0.3157048155480225 pbc="F F F"
Mg       0.00000000       0.00000000       0.00000000       0.00000000       0.00000000       0.24572822
Mg       0.00000000       0.00000000       3.76606061       0.00000000       0.00000000      -0.24572822
2
Properties=species:S:1:pos:R:3:forces:R:3 energy=-0.30133756830656233 pbc="F F F"
Mg       0.00000000       0.00000000       0.00000000       0.00000000       0.00000000       0.24257714
Mg       0.00000000       0.00000000       3.82484848       0.00000000       0.00000000      -0.24257714
2
Properties=species:S:1:pos:R:3:forces:R:3 energy=-0.2872268685501915 pbc="F F F"
Mg       0.00000000       0.00000000       0.00000000       0.00000000       0.00000000       0.23721179
Mg       0.00000000       0.00000000       3.88363636       0.00000000       0.00000000      -0.23721179
2
Properties=species:S:1:pos:R:3:forces:R:3 energy=-0.27346886697206746 pbc="F F F"
Mg       0.00000000       0.00000000       0.00000000       0.00000000       0.00000000       0.23072520
Mg       0.00000000       0.00000000       3.94242424       0.00000000       0.00000000      -0.23072520
2
Properties=species:S:1:pos:R:3:forces:R:3 energy=-0.26010693446485106 pbc="F F F"
Mg       0.00000000       0.00000000       0.00000000       0.00000000       0.00000000       0.22384039
Mg       0.00000000       0.00000000       4.00121212       0.00000000       0.00000000      -0.22384039
2
Properties=species:S:1:pos:R:3:forces:R:3 energy=-0.2471501137906734 pbc="F F F"
Mg       0.00000000       0.00000000       0.00000000       0.00000000       0.00000000       0.21698055
Mg       0.00000000       0.00000000       4.06000000       0.00000000       0.00000000      -0.21698055
2
Properties=species:S:1:pos:R:3:forces:R:3 energy=-0.23459104004874956 pbc="F F F"
Mg       0.00000000       0.00000000       0.00000000       0.00000000       0.00000000       0.21032648
Mg       0.00000000       0.00000000       4.11878788       0.00000000       0.00000000      -0.21032648
2
Properties=species:S:1:pos:R:3:forces:R:3 energy=-0.22241696066725497 pbc="F F F"
Mg       0.00000000       0.00000000       0.00000000       0.00000000       0.00000000       0.20385849
Mg       0.00000000       0.00000000       4.17757576       0.00000000       0.00000000      -0.20385849
2
Properties=species:S:1:pos:R:3:forces:R:3 energy=-0.2106216432711394 pbc="F F F"
Mg       0.00000000       0.00000000       0.00000000       0.00000000       0.00000000       0.19740826
Mg       0.00000000       0.00000000       4.23636364       0.00000000       0.00000000      -0.19740826
2
Properties=species:S:1:pos:R:3:forces:R:3 energy=-0.1992112629147824 pbc="F F F"
Mg       0.00000000       0.00000000       0.00000000       0.00000000       0.00000000       0.19071516
Mg       0.00000000       0.00000000       4.29515152       0.00000000       0.00000000      -0.19071516
2
Properties=species:S:1:pos:R:3:forces:R:3 energy=-0.18820853614531938 pbc="F F F"
Mg       0.00000000       0.00000000       0.00000000       0.00000000       0.00000000       0.18350440
Mg       0.00000000       0.00000000       4.35393939       0.00000000       0.00000000      -0.18350440
2
Properties=species:S:1:pos:R:3:forces:R:3 energy=-0.17765013934995738 pbc="F F F"
Mg       0.00000000       0.00000000       0.00000000       0.00000000       0.00000000       0.17556487
Mg       0.00000000       0.00000000       4.41272727       0.00000000       0.00000000      -0.17556487
2
Properties=species:S:1:pos:R:3:forces:R:3 energy=-0.16758193052695275 pbc="F F F"
Mg       0.00000000       0.00000000       0.00000000       0.00000000       0.00000000       0.16682707
Mg       0.00000000       0.00000000       4.47151515       0.00000000       0.00000000      -0.16682707
2
Properties=species:S:1:pos:R:3:forces:R:3 energy=-0.1580488498201176 pbc="F F F"
Mg       0.00000000       0.00000000       0.00000000       0.00000000       0.00000000       0.15739641
Mg       0.00000000       0.00000000       4.53030303       0.00000000       0.00000000      -0.15739641
2
Properties=species:S:1:pos:R:3:forces:R:3 energy=-0.14908416546415382 pbc="F F F"
Mg       0.00000000       0.00000000       0.00000000       0.00000000       0.00000000       0.14755347
Mg       0.00000000       0.00000000       4.58909091       0.00000000       0.00000000      -0.14755347
2
Properties=species:S:1:pos:R:3:forces:R:3 energy=-0.14070054928102116 pbc="F F F"
Mg       0.00000000       0.00000000       0.00000000       0.00000000       0.00000000       0.13769794
Mg       0.00000000       0.00000000       4.64787879       0.00000000       0.00000000      -0.13769794
2
Properties=species:S:1:pos:R:3:forces:R:3 energy=-0.13288592113186326 pbc="F F F"
Mg       0.00000000       0.00000000       0.00000000       0.00000000       0.00000000       0.12825902
Mg       0.00000000       0.00000000       4.70666667       0.00000000       0.00000000      -0.12825902
2
Properties=species:S:1:pos:R:3:forces:R:3 energy=-0.12560507455947167 pbc="F F F"
Mg       0.00000000       0.00000000       0.00000000       0.00000000       0.00000000       0.11959392
Mg       0.00000000       0.00000000       4.76545455       0.00000000       0.00000000      -0.11959392
2
Properties=species:S:1:pos:R:3:forces:R:3 energy=-0.11880560897236675 pbc="F F F"
Mg       0.00000000       0.00000000       0.00000000       0.00000000       0.00000000       0.11188824
Mg       0.00000000       0.00000000       4.82424242       0.00000000       0.00000000      -0.11188824
2
Properties=species:S:1:pos:R:3:forces:R:3 energy=-0.11243190341220174 pbc="F F F"
Mg       0.00000000       0.00000000       0.00000000       0.00000000       0.00000000       0.10509651
Mg       0.00000000       0.00000000       4.88303030       0.00000000       0.00000000      -0.10509651
2
Properties=species:S:1:pos:R:3:forces:R:3 energy=-0.10643660288916815 pbc="F F F"
Mg       0.00000000       0.00000000       0.00000000       0.00000000       0.00000000       0.09892450
Mg       0.00000000       0.00000000       4.94181818       0.00000000       0.00000000      -0.09892450
2
Properties=species:S:1:pos:R:3:forces:R:3 energy=-0.10079730626663874 pbc="F F F"
Mg       0.00000000       0.00000000       0.00000000       0.00000000       0.00000000       0.09291212
Mg       0.00000000       0.00000000       5.00060606       0.00000000       0.00000000      -0.09291212
2
Properties=species:S:1:pos:R:3:forces:R:3 energy=-0.09551690100633424 pbc="F F F"
Mg       0.00000000       0.00000000       0.00000000       0.00000000       0.00000000       0.08668181
Mg       0.00000000       0.00000000       5.05939394       0.00000000       0.00000000      -0.08668181
2
Properties=species:S:1:pos:R:3:forces:R:3 energy=-0.09060659931124035 pbc="F F F"
Mg       0.00000000       0.00000000       0.00000000       0.00000000       0.00000000       0.08043838
Mg       0.00000000       0.00000000       5.11818182       0.00000000       0.00000000      -0.08043838
2
Properties=species:S:1:pos:R:3:forces:R:3 energy=-0.08603454510010888 pbc="F F F"
Mg       0.00000000       0.00000000       0.00000000       0.00000000       0.00000000       0.07550321
Mg       0.00000000       0.00000000       5.17696970       0.00000000       0.00000000      -0.07550321
2
Properties=species:S:1:pos:R:3:forces:R:3 energy=-0.08166263750826348 pbc="F F F"
Mg       0.00000000       0.00000000       0.00000000       0.00000000       0.00000000       0.07394103
Mg       0.00000000       0.00000000       5.23575758       0.00000000       0.00000000      -0.07394103
2
Properties=species:S:1:pos:R:3:forces:R:3 energy=-0.07726026717437422 pbc="F F F"
Mg       0.00000000       0.00000000       0.00000000       0.00000000       0.00000000       0.07636096
Mg       0.00000000       0.00000000       5.29454545       0.00000000       0.00000000      -0.07636096
2
Properties=species:S:1:pos:R:3:forces:R:3 energy=-0.07266369304343853 pbc="F F F"
Mg       0.00000000       0.00000000       0.00000000       0.00000000       0.00000000       0.07976088
Mg       0.00000000       0.00000000       5.35333333       0.00000000       0.00000000      -0.07976088
2
Properties=species:S:1:pos:R:3:forces:R:3 energy=-0.06795396310739996 pbc="F F F"
Mg       0.00000000       0.00000000       0.00000000       0.00000000       0.00000000       0.07962645
Mg       0.00000000       0.00000000       5.41212121       0.00000000       0.00000000      -0.07962645
2
Properties=species:S:1:pos:R:3:forces:R:3 energy=-0.06339006688459073 pbc="F F F"
Mg       0.00000000       0.00000000       0.00000000       0.00000000       0.00000000       0.07518104
Mg       0.00000000       0.00000000       5.47090909       0.00000000       0.00000000      -0.07518104
2
Properties=species:S:1:pos:R:3:forces:R:3 energy=-0.0591096957513475 pbc="F F F"
Mg       0.00000000       0.00000000       0.00000000       0.00000000       0.00000000       0.07103045
Mg       0.00000000       0.00000000       5.52969697       0.00000000       0.00000000      -0.07103045
2
Properties=species:S:1:pos:R:3:forces:R:3 energy=-0.05491603627819365 pbc="F F F"
Mg       0.00000000       0.00000000       0.00000000       0.00000000       0.00000000       0.07292631
Mg       0.00000000       0.00000000       5.58848485       0.00000000       0.00000000      -0.07292631
2
Properties=species:S:1:pos:R:3:forces:R:3 energy=-0.050408700477128934 pbc="F F F"
Mg       0.00000000       0.00000000       0.00000000       0.00000000       0.00000000       0.08096224
Mg       0.00000000       0.00000000       5.64727273       0.00000000       0.00000000      -0.08096224
2
Properties=species:S:1:pos:R:3:forces:R:3 energy=-0.045438048101709094 pbc="F F F"
Mg       0.00000000       0.00000000       0.00000000       0.00000000       0.00000000       0.08691748
Mg       0.00000000       0.00000000       5.70606061       0.00000000       0.00000000      -0.08691748
2
Properties=species:S:1:pos:R:3:forces:R:3 energy=-0.0404165736551755 pbc="F F F"
Mg       0.00000000       0.00000000       0.00000000       0.00000000       0.00000000       0.08123553
Mg       0.00000000       0.00000000       5.76484848       0.00000000       0.00000000      -0.08123553
2
Properties=species:S:1:pos:R:3:forces:R:3 energy=-0.03614866279170252 pbc="F F F"
Mg       0.00000000       0.00000000       0.00000000       0.00000000       0.00000000       0.06241891
Mg       0.00000000       0.00000000       5.82363636       0.00000000       0.00000000      -0.06241891
2
Properties=species:S:1:pos:R:3:forces:R:3 energy=-0.03319306342948539 pbc="F F F"
Mg       0.00000000       0.00000000       0.00000000       0.00000000       0.00000000       0.03831763
Mg       0.00000000       0.00000000       5.88242424       0.00000000       0.00000000      -0.03831763
2
Properties=species:S:1:pos:R:3:forces:R:3 energy=-0.03154398188977408 pbc="F F F"
Mg       0.00000000       0.00000000       0.00000000       0.00000000       0.00000000       0.01912361
Mg       0.00000000       0.00000000       5.94121212       0.00000000       0.00000000      -0.01912361
2
Properties=species:S:1:pos:R:3:forces:R:3 energy=-0.03071185125206901 pbc="F F F"
Mg       0.00000000       0.00000000       0.00000000       0.00000000       0.00000000       0.01149992
Mg       0.00000000       0.00000000       6.00000000       0.00000000       0.00000000      -0.01149992
