2
Properties=species:S:1:pos:R:3:forces:R:3 energy=11157.399559750878 pbc="F F F"
Nd       0.00000000       0.00000000       0.00000000       0.00000000       0.00000000 -190036.28125000
Nd       0.00000000       0.00000000       0.18000000       0.00000000       0.00000000  190036.28125000
2
Properties=species:S:1:pos:R:3:forces:R:3 energy=4459.046532407128 pbc="F F F"
Nd       0.00000000       0.00000000       0.00000000       0.00000000       0.00000000  -64172.51953125
Nd       0.00000000       0.00000000       0.23878788       0.00000000       0.00000000   64172.51953125
2
Properties=species:S:1:pos:R:3:forces:R:3 energy=2019.9901359227533 pbc="F F F"
Nd       0.00000000       0.00000000       0.00000000       0.00000000       0.00000000  -25521.61718750
Nd       0.00000000       0.00000000       0.29757576       0.00000000       0.00000000   25521.61718750
2
Properties=species:S:1:pos:R:3:forces:R:3 energy=1003.3932731297847 pbc="F F F"
Nd       0.00000000       0.00000000       0.00000000       0.00000000       0.00000000  -11232.81640625
Nd       0.00000000       0.00000000       0.35636364       0.00000000       0.00000000   11232.81640625
2
Properties=species:S:1:pos:R:3:forces:R:3 energy=541.0999381815185 pbc="F F F"
Nd       0.00000000       0.00000000       0.00000000       0.00000000       0.00000000   -5308.83496094
Nd       0.00000000       0.00000000       0.41515152       0.00000000       0.00000000    5308.83496094
2
Properties=species:S:1:pos:R:3:forces:R:3 energy=316.90877608481475 pbc="F F F"
Nd       0.00000000       0.00000000       0.00000000       0.00000000       0.00000000   -2655.17260742
Nd       0.00000000       0.00000000       0.47393939       0.00000000       0.00000000    2655.17260742
2
Properties=species:S:1:pos:R:3:forces:R:3 energy=202.26561813850165 pbc="F F F"
Nd       0.00000000       0.00000000       0.00000000       0.00000000       0.00000000   -1394.32617188
Nd       0.00000000       0.00000000       0.53272727       0.00000000       0.00000000    1394.32617188
2
Properties=species:S:1:pos:R:3:forces:R:3 energy=140.85515675073427 pbc="F F F"
Nd       0.00000000       0.00000000       0.00000000       0.00000000       0.00000000    -764.66015625
Nd       0.00000000       0.00000000       0.59151515       0.00000000       0.00000000     764.66015625
2
Properties=species:S:1:pos:R:3:forces:R:3 energy=106.57520379848972 pbc="F F F"
Nd       0.00000000       0.00000000       0.00000000       0.00000000       0.00000000    -435.67709351
Nd       0.00000000       0.00000000       0.65030303       0.00000000       0.00000000     435.67709351
2
Properties=species:S:1:pos:R:3:forces:R:3 energy=86.74623964111902 pbc="F F F"
Nd       0.00000000       0.00000000       0.00000000       0.00000000       0.00000000    -256.28652954
Nd       0.00000000       0.00000000       0.70909091       0.00000000       0.00000000     256.28652954
2
Properties=species:S:1:pos:R:3:forces:R:3 energy=74.94819744512604 pbc="F F F"
Nd       0.00000000       0.00000000       0.00000000       0.00000000       0.00000000    -154.25646973
Nd       0.00000000       0.00000000       0.76787879       0.00000000       0.00000000     154.25646973
2
Properties=species:S:1:pos:R:3:forces:R:3 energy=67.80995299361784 pbc="F F F"
Nd       0.00000000       0.00000000       0.00000000       0.00000000       0.00000000     -93.56511688
Nd       0.00000000       0.00000000       0.82666667       0.00000000       0.00000000      93.56511688
2
Properties=species:S:1:pos:R:3:forces:R:3 energy=63.507894073459624 pbc="F F F"
Nd       0.00000000       0.00000000       0.00000000       0.00000000       0.00000000     -55.59198380
Nd       0.00000000       0.00000000       0.88545455       0.00000000       0.00000000      55.59198380
2
Properties=species:S:1:pos:R:3:forces:R:3 energy=61.01247206497445 pbc="F F F"
Nd       0.00000000       0.00000000       0.00000000       0.00000000       0.00000000     -31.14922333
Nd       0.00000000       0.00000000       0.94424242       0.00000000       0.00000000      31.14922333
2
Properties=species:S:1:pos:R:3:forces:R:3 energy=59.646604919066036 pbc="F F F"
Nd       0.00000000       0.00000000       0.00000000       0.00000000       0.00000000     -16.92355919
Nd       0.00000000       0.00000000       1.00303030       0.00000000       0.00000000      16.92355919
2
Properties=species:S:1:pos:R:3:forces:R:3 energy=58.84348209118066 pbc="F F F"
Nd       0.00000000       0.00000000       0.00000000       0.00000000       0.00000000     -11.81040382
Nd       0.00000000       0.00000000       1.06181818       0.00000000       0.00000000      11.81040382
2
Properties=species:S:1:pos:R:3:forces:R:3 energy=58.11061093087965 pbc="F F F"
Nd       0.00000000       0.00000000       0.00000000       0.00000000       0.00000000     -14.21208477
Nd       0.00000000       0.00000000       1.12060606       0.00000000       0.00000000      14.21208477
2
Properties=species:S:1:pos:R:3:forces:R:3 energy=57.061719083770825 pbc="F F F"
Nd       0.00000000       0.00000000       0.00000000       0.00000000       0.00000000     -22.27997208
Nd       0.00000000       0.00000000       1.17939394       0.00000000       0.00000000      22.27997208
2
Properties=species:S:1:pos:R:3:forces:R:3 energy=55.40981548115456 pbc="F F F"
Nd       0.00000000       0.00000000       0.00000000       0.00000000       0.00000000     -34.49245834
Nd       0.00000000       0.00000000       1.23818182       0.00000000       0.00000000      34.49245834
2
Properties=species:S:1:pos:R:3:forces:R:3 energy=52.95330486731953 pbc="F F F"
Nd       0.00000000       0.00000000       0.00000000       0.00000000       0.00000000     -49.39872742
Nd       0.00000000       0.00000000       1.29696970       0.00000000       0.00000000      49.39872742
2
Properties=species:S:1:pos:R:3:forces:R:3 energy=49.58104999151319 pbc="F F F"
Nd       0.00000000       0.00000000       0.00000000       0.00000000       0.00000000     -65.34870911
Nd       0.00000000       0.00000000       1.35575758       0.00000000       0.00000000      65.34870911
2
Properties=species:S:1:pos:R:3:forces:R:3 energy=45.28690925449433 pbc="F F F"
Nd       0.00000000       0.00000000       0.00000000       0.00000000       0.00000000     -80.42694092
Nd       0.00000000       0.00000000       1.41454545       0.00000000       0.00000000      80.42694092
2
Properties=species:S:1:pos:R:3:forces:R:3 energy=40.18107793021666 pbc="F F F"
Nd       0.00000000       0.00000000       0.00000000       0.00000000       0.00000000     -92.63916016
Nd       0.00000000       0.00000000       1.47333333       0.00000000       0.00000000      92.63916016
2
Properties=species:S:1:pos:R:3:forces:R:3 energy=34.48893231255731 pbc="F F F"
Nd       0.00000000       0.00000000       0.00000000       0.00000000       0.00000000    -100.03282928
Nd       0.00000000       0.00000000       1.53212121       0.00000000       0.00000000     100.03282928
2
Properties=species:S:1:pos:R:3:forces:R:3 energy=28.557508902594805 pbc="F F F"
Nd       0.00000000       0.00000000       0.00000000       0.00000000       0.00000000    -100.40393829
Nd       0.00000000       0.00000000       1.59090909       0.00000000       0.00000000     100.40393829
2
Properties=species:S:1:pos:R:3:forces:R:3 energy=22.850879138859597 pbc="F F F"
Nd       0.00000000       0.00000000       0.00000000       0.00000000       0.00000000     -92.40132141
Nd       0.00000000       0.00000000       1.64969697       0.00000000       0.00000000      92.40132141
2
Properties=species:S:1:pos:R:3:forces:R:3 energy=17.81016909384328 pbc="F F F"
Nd       0.00000000       0.00000000       0.00000000       0.00000000       0.00000000     -78.56389618
Nd       0.00000000       0.00000000       1.70848485       0.00000000       0.00000000      78.56389618
2
Properties=species:S:1:pos:R:3:forces:R:3 energy=13.618667595190383 pbc="F F F"
Nd       0.00000000       0.00000000       0.00000000       0.00000000       0.00000000     -64.36333466
Nd       0.00000000       0.00000000       1.76727273       0.00000000       0.00000000      64.36333466
2
Properties=species:S:1:pos:R:3:forces:R:3 energy=10.186832507410658 pbc="F F F"
Nd       0.00000000       0.00000000       0.00000000       0.00000000       0.00000000     -52.87986755
Nd       0.00000000       0.00000000       1.82606061       0.00000000       0.00000000      52.87986755
2
Properties=species:S:1:pos:R:3:forces:R:3 energy=7.3537129463871524 pbc="F F F"
Nd       0.00000000       0.00000000       0.00000000       0.00000000       0.00000000     -43.81421280
Nd       0.00000000       0.00000000       1.88484848       0.00000000       0.00000000      43.81421280
2
Properties=species:S:1:pos:R:3:forces:R:3 energy=5.006910642495781 pbc="F F F"
Nd       0.00000000       0.00000000       0.00000000       0.00000000       0.00000000     -36.22584915
Nd       0.00000000       0.00000000       1.94363636       0.00000000       0.00000000      36.22584915
2
Properties=species:S:1:pos:R:3:forces:R:3 energy=3.0727763056809407 pbc="F F F"
Nd       0.00000000       0.00000000       0.00000000       0.00000000       0.00000000     -29.74574471
Nd       0.00000000       0.00000000       2.00242424       0.00000000       0.00000000      29.74574471
2
Properties=species:S:1:pos:R:3:forces:R:3 energy=1.4911003518761354 pbc="F F F"
Nd       0.00000000       0.00000000       0.00000000       0.00000000       0.00000000     -24.20481491
Nd       0.00000000       0.00000000       2.06121212       0.00000000       0.00000000      24.20481491
2
Properties=species:S:1:pos:R:3:forces:R:3 energy=0.21210619363164265 pbc="F F F"
Nd       0.00000000       0.00000000       0.00000000       0.00000000       0.00000000     -19.42007637
Nd       0.00000000       0.00000000       2.12000000       0.00000000       0.00000000      19.42007637
2
Properties=species:S:1:pos:R:3:forces:R:3 energy=-0.8043814704273976 pbc="F F F"
Nd       0.00000000       0.00000000       0.00000000       0.00000000       0.00000000     -15.25764751
Nd       0.00000000       0.00000000       2.17878788       0.00000000       0.00000000      15.25764751
2
Properties=species:S:1:pos:R:3:forces:R:3 energy=-1.5926604900453911 pbc="F F F"
Nd       0.00000000       0.00000000       0.00000000       0.00000000       0.00000000     -11.65056133
Nd       0.00000000       0.00000000       2.23757576       0.00000000       0.00000000      11.65056133
2
Properties=species:S:1:pos:R:3:forces:R:3 energy=-2.1849914155370325 pbc="F F F"
Nd       0.00000000       0.00000000       0.00000000       0.00000000       0.00000000      -8.59467888
Nd       0.00000000       0.00000000       2.29636364       0.00000000       0.00000000       8.59467888
2
Properties=species:S:1:pos:R:3:forces:R:3 energy=-2.6143933564366977 pbc="F F F"
Nd       0.00000000       0.00000000       0.00000000       0.00000000       0.00000000      -6.10964441
Nd       0.00000000       0.00000000       2.35515152       0.00000000       0.00000000       6.10964441
2
Properties=species:S:1:pos:R:3:forces:R:3 energy=-2.914415959470109 pbc="F F F"
Nd       0.00000000       0.00000000       0.00000000       0.00000000       0.00000000      -4.18831968
Nd       0.00000000       0.00000000       2.41393939       0.00000000       0.00000000       4.18831968
2
Properties=species:S:1:pos:R:3:forces:R:3 energy=-3.1169411765837327 pbc="F F F"
Nd       0.00000000       0.00000000       0.00000000       0.00000000       0.00000000      -2.78156805
Nd       0.00000000       0.00000000       2.47272727       0.00000000       0.00000000       2.78156805
2
Properties=species:S:1:pos:R:3:forces:R:3 energy=-3.2499832955199826 pbc="F F F"
Nd       0.00000000       0.00000000       0.00000000       0.00000000       0.00000000      -1.80924094
Nd       0.00000000       0.00000000       2.53151515       0.00000000       0.00000000       1.80924094
2
Properties=species:S:1:pos:R:3:forces:R:3 energy=-3.336269281555654 pbc="F F F"
Nd       0.00000000       0.00000000       0.00000000       0.00000000       0.00000000      -1.17376769
Nd       0.00000000       0.00000000       2.59030303       0.00000000       0.00000000       1.17376769
2
Properties=species:S:1:pos:R:3:forces:R:3 energy=-3.392572072791639 pbc="F F F"
Nd       0.00000000       0.00000000       0.00000000       0.00000000       0.00000000      -0.77234089
Nd       0.00000000       0.00000000       2.64909091       0.00000000       0.00000000       0.77234089
2
Properties=species:S:1:pos:R:3:forces:R:3 energy=-3.429799119808888 pbc="F F F"
Nd       0.00000000       0.00000000       0.00000000       0.00000000       0.00000000      -0.51049244
Nd       0.00000000       0.00000000       2.70787879       0.00000000       0.00000000       0.51049244
2
Properties=species:S:1:pos:R:3:forces:R:3 energy=-3.4538713105925773 pbc="F F F"
Nd       0.00000000       0.00000000       0.00000000       0.00000000       0.00000000      -0.31479171
Nd       0.00000000       0.00000000       2.76666667       0.00000000       0.00000000       0.31479171
2
Properties=species:S:1:pos:R:3:forces:R:3 energy=-3.4671774482416096 pbc="F F F"
Nd       0.00000000       0.00000000       0.00000000       0.00000000       0.00000000      -0.13867246
Nd       0.00000000       0.00000000       2.82545455       0.00000000       0.00000000       0.13867246
2
Properties=species:S:1:pos:R:3:forces:R:3 energy=-3.47011235257884 pbc="F F F"
Nd       0.00000000       0.00000000       0.00000000       0.00000000       0.00000000       0.04007365
Nd       0.00000000       0.00000000       2.88424242       0.00000000       0.00000000      -0.04007365
2
Properties=species:S:1:pos:R:3:forces:R:3 energy=-3.46230827944085 pbc="F F F"
Nd       0.00000000       0.00000000       0.00000000       0.00000000       0.00000000       0.22649448
Nd       0.00000000       0.00000000       2.94303030       0.00000000       0.00000000      -0.22649448
2
Properties=species:S:1:pos:R:3:forces:R:3 energy=-3.443431289417297 pbc="F F F"
Nd       0.00000000       0.00000000       0.00000000       0.00000000       0.00000000       0.41538969
Nd       0.00000000       0.00000000       3.00181818       0.00000000       0.00000000      -0.41538969
2
Properties=species:S:1:pos:R:3:forces:R:3 energy=-3.4136271262718 pbc="F F F"
Nd       0.00000000       0.00000000       0.00000000       0.00000000       0.00000000       0.59614396
Nd       0.00000000       0.00000000       3.06060606       0.00000000       0.00000000      -0.59614396
2
Properties=species:S:1:pos:R:3:forces:R:3 energy=-3.373748444855013 pbc="F F F"
Nd       0.00000000       0.00000000       0.00000000       0.00000000       0.00000000       0.75600386
Nd       0.00000000       0.00000000       3.11939394       0.00000000       0.00000000      -0.75600386
2
Properties=species:S:1:pos:R:3:forces:R:3 energy=-3.3253839591918144 pbc="F F F"
Nd       0.00000000       0.00000000       0.00000000       0.00000000       0.00000000       0.88306183
Nd       0.00000000       0.00000000       3.17818182       0.00000000       0.00000000      -0.88306183
2
Properties=species:S:1:pos:R:3:forces:R:3 energy=-3.270725770045637 pbc="F F F"
Nd       0.00000000       0.00000000       0.00000000       0.00000000       0.00000000       0.96928823
Nd       0.00000000       0.00000000       3.23696970       0.00000000       0.00000000      -0.96928823
2
Properties=species:S:1:pos:R:3:forces:R:3 energy=-3.212259920609462 pbc="F F F"
Nd       0.00000000       0.00000000       0.00000000       0.00000000       0.00000000       1.01293075
Nd       0.00000000       0.00000000       3.29575758       0.00000000       0.00000000      -1.01293075
2
Properties=species:S:1:pos:R:3:forces:R:3 energy=-3.1523646635359404 pbc="F F F"
Nd       0.00000000       0.00000000       0.00000000       0.00000000       0.00000000       1.01928806
Nd       0.00000000       0.00000000       3.35454545       0.00000000       0.00000000      -1.01928806
2
Properties=species:S:1:pos:R:3:forces:R:3 energy=-3.0929293666776796 pbc="F F F"
Nd       0.00000000       0.00000000       0.00000000       0.00000000       0.00000000       0.99955678
Nd       0.00000000       0.00000000       3.41333333       0.00000000       0.00000000      -0.99955678
2
Properties=species:S:1:pos:R:3:forces:R:3 energy=-3.035072162133143 pbc="F F F"
Nd       0.00000000       0.00000000       0.00000000       0.00000000       0.00000000       0.96799171
Nd       0.00000000       0.00000000       3.47212121       0.00000000       0.00000000      -0.96799171
2
Properties=species:S:1:pos:R:3:forces:R:3 energy=-2.9790797530590236 pbc="F F F"
Nd       0.00000000       0.00000000       0.00000000       0.00000000       0.00000000       0.93816513
Nd       0.00000000       0.00000000       3.53090909       0.00000000       0.00000000      -0.93816513
2
Properties=species:S:1:pos:R:3:forces:R:3 energy=-2.924540086105919 pbc="F F F"
Nd       0.00000000       0.00000000       0.00000000       0.00000000       0.00000000       0.91971183
Nd       0.00000000       0.00000000       3.58969697       0.00000000       0.00000000      -0.91971183
2
Properties=species:S:1:pos:R:3:forces:R:3 energy=-2.870634540890615 pbc="F F F"
Nd       0.00000000       0.00000000       0.00000000       0.00000000       0.00000000       0.91683787
Nd       0.00000000       0.00000000       3.64848485       0.00000000       0.00000000      -0.91683787
2
Properties=species:S:1:pos:R:3:forces:R:3 energy=-2.8164500325874187 pbc="F F F"
Nd       0.00000000       0.00000000       0.00000000       0.00000000       0.00000000       0.92876357
Nd       0.00000000       0.00000000       3.70727273       0.00000000       0.00000000      -0.92876357
2
Properties=species:S:1:pos:R:3:forces:R:3 energy=-2.7612254733825066 pbc="F F F"
Nd       0.00000000       0.00000000       0.00000000       0.00000000       0.00000000       0.95130551
Nd       0.00000000       0.00000000       3.76606061       0.00000000       0.00000000      -0.95130551
2
Properties=species:S:1:pos:R:3:forces:R:3 energy=-2.704503244299387 pbc="F F F"
Nd       0.00000000       0.00000000       0.00000000       0.00000000       0.00000000       0.97879106
Nd       0.00000000       0.00000000       3.82484848       0.00000000       0.00000000      -0.97879106
2
Properties=species:S:1:pos:R:3:forces:R:3 energy=-2.646152785966939 pbc="F F F"
Nd       0.00000000       0.00000000       0.00000000       0.00000000       0.00000000       1.00589621
Nd       0.00000000       0.00000000       3.88363636       0.00000000       0.00000000      -1.00589621
2
Properties=species:S:1:pos:R:3:forces:R:3 energy=-2.5863117979293984 pbc="F F F"
Nd       0.00000000       0.00000000       0.00000000       0.00000000       0.00000000       1.02912951
Nd       0.00000000       0.00000000       3.94242424       0.00000000       0.00000000      -1.02912951
2
Properties=species:S:1:pos:R:3:forces:R:3 energy=-2.5252499495822254 pbc="F F F"
Nd       0.00000000       0.00000000       0.00000000       0.00000000       0.00000000       1.04746723
Nd       0.00000000       0.00000000       4.00121212       0.00000000       0.00000000      -1.04746723
2
Properties=species:S:1:pos:R:3:forces:R:3 energy=-2.463232030243605 pbc="F F F"
Nd       0.00000000       0.00000000       0.00000000       0.00000000       0.00000000       1.06191301
Nd       0.00000000       0.00000000       4.06000000       0.00000000       0.00000000      -1.06191301
2
Properties=species:S:1:pos:R:3:forces:R:3 energy=-2.4004336986970043 pbc="F F F"
Nd       0.00000000       0.00000000       0.00000000       0.00000000       0.00000000       1.07432878
Nd       0.00000000       0.00000000       4.11878788       0.00000000       0.00000000      -1.07432878
2
Properties=species:S:1:pos:R:3:forces:R:3 energy=-2.3369269523291347 pbc="F F F"
Nd       0.00000000       0.00000000       0.00000000       0.00000000       0.00000000       1.08619118
Nd       0.00000000       0.00000000       4.17757576       0.00000000       0.00000000      -1.08619118
2
Properties=species:S:1:pos:R:3:forces:R:3 energy=-2.2727263193137612 pbc="F F F"
Nd       0.00000000       0.00000000       0.00000000       0.00000000       0.00000000       1.09787810
Nd       0.00000000       0.00000000       4.23636364       0.00000000       0.00000000      -1.09787810
2
Properties=species:S:1:pos:R:3:forces:R:3 energy=-2.2078609727282807 pbc="F F F"
Nd       0.00000000       0.00000000       0.00000000       0.00000000       0.00000000       1.10856807
Nd       0.00000000       0.00000000       4.29515152       0.00000000       0.00000000      -1.10856807
2
Properties=species:S:1:pos:R:3:forces:R:3 energy=-2.142437211228643 pbc="F F F"
Nd       0.00000000       0.00000000       0.00000000       0.00000000       0.00000000       1.11666870
Nd       0.00000000       0.00000000       4.35393939       0.00000000       0.00000000      -1.11666870
2
Properties=species:S:1:pos:R:3:forces:R:3 energy=-2.0766554604602927 pbc="F F F"
Nd       0.00000000       0.00000000       0.00000000       0.00000000       0.00000000       1.12037516
Nd       0.00000000       0.00000000       4.41272727       0.00000000       0.00000000      -1.12037516
2
Properties=species:S:1:pos:R:3:forces:R:3 energy=-2.0108220010860065 pbc="F F F"
Nd       0.00000000       0.00000000       0.00000000       0.00000000       0.00000000       1.11823153
Nd       0.00000000       0.00000000       4.47151515       0.00000000       0.00000000      -1.11823153
2
Properties=species:S:1:pos:R:3:forces:R:3 energy=-1.9453074661141498 pbc="F F F"
Nd       0.00000000       0.00000000       0.00000000       0.00000000       0.00000000       1.10947716
Nd       0.00000000       0.00000000       4.53030303       0.00000000       0.00000000      -1.10947716
2
Properties=species:S:1:pos:R:3:forces:R:3 energy=-1.880504564782445 pbc="F F F"
Nd       0.00000000       0.00000000       0.00000000       0.00000000       0.00000000       1.09416997
Nd       0.00000000       0.00000000       4.58909091       0.00000000       0.00000000      -1.09416997
2
Properties=species:S:1:pos:R:3:forces:R:3 energy=-1.8167729215030808 pbc="F F F"
Nd       0.00000000       0.00000000       0.00000000       0.00000000       0.00000000       1.07319188
Nd       0.00000000       0.00000000       4.64787879       0.00000000       0.00000000      -1.07319188
2
Properties=species:S:1:pos:R:3:forces:R:3 energy=-1.754405910337642 pbc="F F F"
Nd       0.00000000       0.00000000       0.00000000       0.00000000       0.00000000       1.04793191
Nd       0.00000000       0.00000000       4.70666667       0.00000000       0.00000000      -1.04793191
2
Properties=species:S:1:pos:R:3:forces:R:3 energy=-1.6936138666621663 pbc="F F F"
Nd       0.00000000       0.00000000       0.00000000       0.00000000       0.00000000       1.01993442
Nd       0.00000000       0.00000000       4.76545455       0.00000000       0.00000000      -1.01993442
2
Properties=species:S:1:pos:R:3:forces:R:3 energy=-1.6345187912732508 pbc="F F F"
Nd       0.00000000       0.00000000       0.00000000       0.00000000       0.00000000       0.99021840
Nd       0.00000000       0.00000000       4.82424242       0.00000000       0.00000000      -0.99021840
2
Properties=species:S:1:pos:R:3:forces:R:3 energy=-1.5772271567536977 pbc="F F F"
Nd       0.00000000       0.00000000       0.00000000       0.00000000       0.00000000       0.95861775
Nd       0.00000000       0.00000000       4.88303030       0.00000000       0.00000000      -0.95861775
2
Properties=species:S:1:pos:R:3:forces:R:3 energy=-1.5218800692408376 pbc="F F F"
Nd       0.00000000       0.00000000       0.00000000       0.00000000       0.00000000       0.92336804
Nd       0.00000000       0.00000000       4.94181818       0.00000000       0.00000000      -0.92336804
2
Properties=species:S:1:pos:R:3:forces:R:3 energy=-1.4687781997619789 pbc="F F F"
Nd       0.00000000       0.00000000       0.00000000       0.00000000       0.00000000       0.88196272
Nd       0.00000000       0.00000000       5.00060606       0.00000000       0.00000000      -0.88196272
2
Properties=species:S:1:pos:R:3:forces:R:3 energy=-1.4183038035200617 pbc="F F F"
Nd       0.00000000       0.00000000       0.00000000       0.00000000       0.00000000       0.83454448
Nd       0.00000000       0.00000000       5.05939394       0.00000000       0.00000000      -0.83454448
2
Properties=species:S:1:pos:R:3:forces:R:3 energy=-1.3706159195792558 pbc="F F F"
Nd       0.00000000       0.00000000       0.00000000       0.00000000       0.00000000       0.78955168
Nd       0.00000000       0.00000000       5.11818182       0.00000000       0.00000000      -0.78955168
2
Properties=species:S:1:pos:R:3:forces:R:3 energy=-1.3250587910137677 pbc="F F F"
Nd       0.00000000       0.00000000       0.00000000       0.00000000       0.00000000       0.76576090
Nd       0.00000000       0.00000000       5.17696970       0.00000000       0.00000000      -0.76576090
2
Properties=species:S:1:pos:R:3:forces:R:3 energy=-1.2798368508673228 pbc="F F F"
Nd       0.00000000       0.00000000       0.00000000       0.00000000       0.00000000       0.77918410
Nd       0.00000000       0.00000000       5.23575758       0.00000000       0.00000000      -0.77918410
2
Properties=species:S:1:pos:R:3:forces:R:3 energy=-1.2329335481752044 pbc="F F F"
Nd       0.00000000       0.00000000       0.00000000       0.00000000       0.00000000       0.81761670
Nd       0.00000000       0.00000000       5.29454545       0.00000000       0.00000000      -0.81761670
2
Properties=species:S:1:pos:R:3:forces:R:3 energy=-1.1840760869504956 pbc="F F F"
Nd       0.00000000       0.00000000       0.00000000       0.00000000       0.00000000       0.83728510
Nd       0.00000000       0.00000000       5.35333333       0.00000000       0.00000000      -0.83728510
2
Properties=species:S:1:pos:R:3:forces:R:3 energy=-1.1355305498094777 pbc="F F F"
Nd       0.00000000       0.00000000       0.00000000       0.00000000       0.00000000       0.80563223
Nd       0.00000000       0.00000000       5.41212121       0.00000000       0.00000000      -0.80563223
2
Properties=species:S:1:pos:R:3:forces:R:3 energy=-1.0899031649892421 pbc="F F F"
Nd       0.00000000       0.00000000       0.00000000       0.00000000       0.00000000       0.74786085
Nd       0.00000000       0.00000000       5.47090909       0.00000000       0.00000000      -0.74786085
2
Properties=species:S:1:pos:R:3:forces:R:3 energy=-1.0465933824887146 pbc="F F F"
Nd       0.00000000       0.00000000       0.00000000       0.00000000       0.00000000       0.74129188
Nd       0.00000000       0.00000000       5.52969697       0.00000000       0.00000000      -0.74129188
2
Properties=species:S:1:pos:R:3:forces:R:3 energy=-1.0003221656970627 pbc="F F F"
Nd       0.00000000       0.00000000       0.00000000       0.00000000       0.00000000       0.85510719
Nd       0.00000000       0.00000000       5.58848485       0.00000000       0.00000000      -0.85510719
2
Properties=species:S:1:pos:R:3:forces:R:3 energy=-0.9440344205641011 pbc="F F F"
Nd       0.00000000       0.00000000       0.00000000       0.00000000       0.00000000       1.06747937
Nd       0.00000000       0.00000000       5.64727273       0.00000000       0.00000000      -1.06747937
2
Properties=species:S:1:pos:R:3:forces:R:3 energy=-0.8756939697021375 pbc="F F F"
Nd       0.00000000       0.00000000       0.00000000       0.00000000       0.00000000       1.23532879
Nd       0.00000000       0.00000000       5.70606061       0.00000000       0.00000000      -1.23532879
2
Properties=species:S:1:pos:R:3:forces:R:3 energy=-0.8028824552916197 pbc="F F F"
Nd       0.00000000       0.00000000       0.00000000       0.00000000       0.00000000       1.19326890
Nd       0.00000000       0.00000000       5.76484848       0.00000000       0.00000000      -1.19326890
2
Properties=species:S:1:pos:R:3:forces:R:3 energy=-0.7403578110379991 pbc="F F F"
Nd       0.00000000       0.00000000       0.00000000       0.00000000       0.00000000       0.90312713
Nd       0.00000000       0.00000000       5.82363636       0.00000000       0.00000000      -0.90312713
2
Properties=species:S:1:pos:R:3:forces:R:3 energy=-0.6991730947270379 pbc="F F F"
Nd       0.00000000       0.00000000       0.00000000       0.00000000       0.00000000       0.49854627
Nd       0.00000000       0.00000000       5.88242424       0.00000000       0.00000000      -0.49854627
2
Properties=species:S:1:pos:R:3:forces:R:3 energy=-0.680226216703189 pbc="F F F"
Nd       0.00000000       0.00000000       0.00000000       0.00000000       0.00000000       0.16898686
Nd       0.00000000       0.00000000       5.94121212       0.00000000       0.00000000      -0.16898686
2
Properties=species:S:1:pos:R:3:forces:R:3 energy=-0.6751776080608068 pbc="F F F"
Nd       0.00000000       0.00000000       0.00000000       0.00000000       0.00000000       0.04415693
Nd       0.00000000       0.00000000       6.00000000       0.00000000       0.00000000      -0.04415693
