2
Properties=species:S:1:pos:R:3:forces:R:3 energy=3821.1401075874937 pbc="F F F"
Ni       0.00000000       0.00000000       0.00000000       0.00000000       0.00000000  -59120.75000000
Ni       0.00000000       0.00000000       0.18000000       0.00000000       0.00000000   59120.75000000
2
Properties=species:S:1:pos:R:3:forces:R:3 energy=1673.3362745796812 pbc="F F F"
Ni       0.00000000       0.00000000       0.00000000       0.00000000       0.00000000  -21445.54101562
Ni       0.00000000       0.00000000       0.23878788       0.00000000       0.00000000   21445.54101562
2
Properties=species:S:1:pos:R:3:forces:R:3 energy=833.4923414742126 pbc="F F F"
Ni       0.00000000       0.00000000       0.00000000       0.00000000       0.00000000   -9153.06152344
Ni       0.00000000       0.00000000       0.29757576       0.00000000       0.00000000    9153.06152344
2
Properties=species:S:1:pos:R:3:forces:R:3 energy=457.19290300081786 pbc="F F F"
Ni       0.00000000       0.00000000       0.00000000       0.00000000       0.00000000   -4332.19921875
Ni       0.00000000       0.00000000       0.35636364       0.00000000       0.00000000    4332.19921875
2
Properties=species:S:1:pos:R:3:forces:R:3 energy=273.270661796216 pbc="F F F"
Ni       0.00000000       0.00000000       0.00000000       0.00000000       0.00000000   -2193.85620117
Ni       0.00000000       0.00000000       0.41515152       0.00000000       0.00000000    2193.85620117
2
Properties=species:S:1:pos:R:3:forces:R:3 energy=178.1490950395942 pbc="F F F"
Ni       0.00000000       0.00000000       0.00000000       0.00000000       0.00000000   -1160.04101562
Ni       0.00000000       0.00000000       0.47393939       0.00000000       0.00000000    1160.04101562
2
Properties=species:S:1:pos:R:3:forces:R:3 energy=127.2742934323624 pbc="F F F"
Ni       0.00000000       0.00000000       0.00000000       0.00000000       0.00000000    -626.68487549
Ni       0.00000000       0.00000000       0.53272727       0.00000000       0.00000000     626.68487549
2
Properties=species:S:1:pos:R:3:forces:R:3 energy=99.73055416103207 pbc="F F F"
Ni       0.00000000       0.00000000       0.00000000       0.00000000       0.00000000    -339.22775269
Ni       0.00000000       0.00000000       0.59151515       0.00000000       0.00000000     339.22775269
2
Properties=species:S:1:pos:R:3:forces:R:3 energy=84.85169377293046 pbc="F F F"
Ni       0.00000000       0.00000000       0.00000000       0.00000000       0.00000000    -183.10975647
Ni       0.00000000       0.00000000       0.65030303       0.00000000       0.00000000     183.10975647
2
Properties=species:S:1:pos:R:3:forces:R:3 energy=76.71143511374866 pbc="F F F"
Ni       0.00000000       0.00000000       0.00000000       0.00000000       0.00000000    -103.90142059
Ni       0.00000000       0.00000000       0.70909091       0.00000000       0.00000000     103.90142059
2
Properties=species:S:1:pos:R:3:forces:R:3 energy=71.65458869150129 pbc="F F F"
Ni       0.00000000       0.00000000       0.00000000       0.00000000       0.00000000     -75.07111359
Ni       0.00000000       0.00000000       0.76787879       0.00000000       0.00000000      75.07111359
2
Properties=species:S:1:pos:R:3:forces:R:3 energy=67.21325139749172 pbc="F F F"
Ni       0.00000000       0.00000000       0.00000000       0.00000000       0.00000000     -80.50841522
Ni       0.00000000       0.00000000       0.82666667       0.00000000       0.00000000      80.50841522
2
Properties=species:S:1:pos:R:3:forces:R:3 energy=61.81655381126172 pbc="F F F"
Ni       0.00000000       0.00000000       0.00000000       0.00000000       0.00000000    -104.87922668
Ni       0.00000000       0.00000000       0.88545455       0.00000000       0.00000000     104.87922668
2
Properties=species:S:1:pos:R:3:forces:R:3 energy=54.83453687705115 pbc="F F F"
Ni       0.00000000       0.00000000       0.00000000       0.00000000       0.00000000    -131.75157166
Ni       0.00000000       0.00000000       0.94424242       0.00000000       0.00000000     131.75157166
2
Properties=species:S:1:pos:R:3:forces:R:3 energy=46.55588167265078 pbc="F F F"
Ni       0.00000000       0.00000000       0.00000000       0.00000000       0.00000000    -147.08851624
Ni       0.00000000       0.00000000       1.00303030       0.00000000       0.00000000     147.08851624
2
Properties=species:S:1:pos:R:3:forces:R:3 energy=37.92654925678438 pbc="F F F"
Ni       0.00000000       0.00000000       0.00000000       0.00000000       0.00000000    -143.08872986
Ni       0.00000000       0.00000000       1.06181818       0.00000000       0.00000000     143.08872986
2
Properties=species:S:1:pos:R:3:forces:R:3 energy=30.039751829997414 pbc="F F F"
Ni       0.00000000       0.00000000       0.00000000       0.00000000       0.00000000    -123.98658752
Ni       0.00000000       0.00000000       1.12060606       0.00000000       0.00000000     123.98658752
2
Properties=species:S:1:pos:R:3:forces:R:3 energy=23.32324866102459 pbc="F F F"
Ni       0.00000000       0.00000000       0.00000000       0.00000000       0.00000000    -105.65411377
Ni       0.00000000       0.00000000       1.17939394       0.00000000       0.00000000     105.65411377
2
Properties=species:S:1:pos:R:3:forces:R:3 energy=17.49229367802445 pbc="F F F"
Ni       0.00000000       0.00000000       0.00000000       0.00000000       0.00000000     -93.22199249
Ni       0.00000000       0.00000000       1.23818182       0.00000000       0.00000000      93.22199249
2
Properties=species:S:1:pos:R:3:forces:R:3 energy=12.388036328345574 pbc="F F F"
Ni       0.00000000       0.00000000       0.00000000       0.00000000       0.00000000     -79.73134613
Ni       0.00000000       0.00000000       1.29696970       0.00000000       0.00000000      79.73134613
2
Properties=species:S:1:pos:R:3:forces:R:3 energy=8.19116467156916 pbc="F F F"
Ni       0.00000000       0.00000000       0.00000000       0.00000000       0.00000000     -62.78244019
Ni       0.00000000       0.00000000       1.35575758       0.00000000       0.00000000      62.78244019
2
Properties=species:S:1:pos:R:3:forces:R:3 energy=4.985612178328696 pbc="F F F"
Ni       0.00000000       0.00000000       0.00000000       0.00000000       0.00000000     -46.77449799
Ni       0.00000000       0.00000000       1.41454545       0.00000000       0.00000000      46.77449799
2
Properties=species:S:1:pos:R:3:forces:R:3 energy=2.618845898810509 pbc="F F F"
Ni       0.00000000       0.00000000       0.00000000       0.00000000       0.00000000     -34.38901520
Ni       0.00000000       0.00000000       1.47333333       0.00000000       0.00000000      34.38901520
2
Properties=species:S:1:pos:R:3:forces:R:3 energy=0.8717278657977777 pbc="F F F"
Ni       0.00000000       0.00000000       0.00000000       0.00000000       0.00000000     -25.58003616
Ni       0.00000000       0.00000000       1.53212121       0.00000000       0.00000000      25.58003616
2
Properties=species:S:1:pos:R:3:forces:R:3 energy=-0.4408783964754731 pbc="F F F"
Ni       0.00000000       0.00000000       0.00000000       0.00000000       0.00000000     -19.43117523
Ni       0.00000000       0.00000000       1.59090909       0.00000000       0.00000000      19.43117523
2
Properties=species:S:1:pos:R:3:forces:R:3 energy=-1.4457699195401217 pbc="F F F"
Ni       0.00000000       0.00000000       0.00000000       0.00000000       0.00000000     -14.97058487
Ni       0.00000000       0.00000000       1.64969697       0.00000000       0.00000000      14.97058487
2
Properties=species:S:1:pos:R:3:forces:R:3 energy=-2.220617301279476 pbc="F F F"
Ni       0.00000000       0.00000000       0.00000000       0.00000000       0.00000000     -11.51900864
Ni       0.00000000       0.00000000       1.70848485       0.00000000       0.00000000      11.51900864
2
Properties=species:S:1:pos:R:3:forces:R:3 energy=-2.812447491396926 pbc="F F F"
Ni       0.00000000       0.00000000       0.00000000       0.00000000       0.00000000      -8.70300961
Ni       0.00000000       0.00000000       1.76727273       0.00000000       0.00000000       8.70300961
2
Properties=species:S:1:pos:R:3:forces:R:3 energy=-3.2529982160233497 pbc="F F F"
Ni       0.00000000       0.00000000       0.00000000       0.00000000       0.00000000      -6.35550690
Ni       0.00000000       0.00000000       1.82606061       0.00000000       0.00000000       6.35550690
2
Properties=species:S:1:pos:R:3:forces:R:3 energy=-3.567616449530895 pbc="F F F"
Ni       0.00000000       0.00000000       0.00000000       0.00000000       0.00000000      -4.41316795
Ni       0.00000000       0.00000000       1.88484848       0.00000000       0.00000000       4.41316795
2
Properties=species:S:1:pos:R:3:forces:R:3 energy=-3.779394978593232 pbc="F F F"
Ni       0.00000000       0.00000000       0.00000000       0.00000000       0.00000000      -2.85410929
Ni       0.00000000       0.00000000       1.94363636       0.00000000       0.00000000       2.85410929
2
Properties=species:S:1:pos:R:3:forces:R:3 energy=-3.9102229320434283 pbc="F F F"
Ni       0.00000000       0.00000000       0.00000000       0.00000000       0.00000000      -1.65293884
Ni       0.00000000       0.00000000       2.00242424       0.00000000       0.00000000       1.65293884
2
Properties=species:S:1:pos:R:3:forces:R:3 energy=-3.9797651607608766 pbc="F F F"
Ni       0.00000000       0.00000000       0.00000000       0.00000000       0.00000000      -0.75872958
Ni       0.00000000       0.00000000       2.06121212       0.00000000       0.00000000       0.75872958
2
Properties=species:S:1:pos:R:3:forces:R:3 energy=-4.0041657707205465 pbc="F F F"
Ni       0.00000000       0.00000000       0.00000000       0.00000000       0.00000000      -0.10638603
Ni       0.00000000       0.00000000       2.12000000       0.00000000       0.00000000       0.10638603
2
Properties=species:S:1:pos:R:3:forces:R:3 energy=-3.9958637929316807 pbc="F F F"
Ni       0.00000000       0.00000000       0.00000000       0.00000000       0.00000000       0.36215743
Ni       0.00000000       0.00000000       2.17878788       0.00000000       0.00000000      -0.36215743
2
Properties=species:S:1:pos:R:3:forces:R:3 energy=-3.9643709677698546 pbc="F F F"
Ni       0.00000000       0.00000000       0.00000000       0.00000000       0.00000000       0.68795103
Ni       0.00000000       0.00000000       2.23757576       0.00000000       0.00000000      -0.68795103
2
Properties=species:S:1:pos:R:3:forces:R:3 energy=-3.9172514501665288 pbc="F F F"
Ni       0.00000000       0.00000000       0.00000000       0.00000000       0.00000000       0.89775431
Ni       0.00000000       0.00000000       2.29636364       0.00000000       0.00000000      -0.89775431
2
Properties=species:S:1:pos:R:3:forces:R:3 energy=-3.860464516470769 pbc="F F F"
Ni       0.00000000       0.00000000       0.00000000       0.00000000       0.00000000       1.02523518
Ni       0.00000000       0.00000000       2.35515152       0.00000000       0.00000000      -1.02523518
2
Properties=species:S:1:pos:R:3:forces:R:3 energy=-3.7968710457954327 pbc="F F F"
Ni       0.00000000       0.00000000       0.00000000       0.00000000       0.00000000       1.14426398
Ni       0.00000000       0.00000000       2.41393939       0.00000000       0.00000000      -1.14426398
2
Properties=species:S:1:pos:R:3:forces:R:3 energy=-3.7250288518646086 pbc="F F F"
Ni       0.00000000       0.00000000       0.00000000       0.00000000       0.00000000       1.30345821
Ni       0.00000000       0.00000000       2.47272727       0.00000000       0.00000000      -1.30345821
2
Properties=species:S:1:pos:R:3:forces:R:3 energy=-3.64408880154835 pbc="F F F"
Ni       0.00000000       0.00000000       0.00000000       0.00000000       0.00000000       1.44037211
Ni       0.00000000       0.00000000       2.53151515       0.00000000       0.00000000      -1.44037211
2
Properties=species:S:1:pos:R:3:forces:R:3 energy=-3.556933815413344 pbc="F F F"
Ni       0.00000000       0.00000000       0.00000000       0.00000000       0.00000000       1.51535881
Ni       0.00000000       0.00000000       2.59030303       0.00000000       0.00000000      -1.51535881
2
Properties=species:S:1:pos:R:3:forces:R:3 energy=-3.4667579422209696 pbc="F F F"
Ni       0.00000000       0.00000000       0.00000000       0.00000000       0.00000000       1.54722893
Ni       0.00000000       0.00000000       2.64909091       0.00000000       0.00000000      -1.54722893
2
Properties=species:S:1:pos:R:3:forces:R:3 energy=-3.3755167311377967 pbc="F F F"
Ni       0.00000000       0.00000000       0.00000000       0.00000000       0.00000000       1.55315721
Ni       0.00000000       0.00000000       2.70787879       0.00000000       0.00000000      -1.55315721
2
Properties=species:S:1:pos:R:3:forces:R:3 energy=-3.284568621708053 pbc="F F F"
Ni       0.00000000       0.00000000       0.00000000       0.00000000       0.00000000       1.53725338
Ni       0.00000000       0.00000000       2.76666667       0.00000000       0.00000000      -1.53725338
2
Properties=species:S:1:pos:R:3:forces:R:3 energy=-3.195211785315449 pbc="F F F"
Ni       0.00000000       0.00000000       0.00000000       0.00000000       0.00000000       1.49898207
Ni       0.00000000       0.00000000       2.82545455       0.00000000       0.00000000      -1.49898207
2
Properties=species:S:1:pos:R:3:forces:R:3 energy=-3.1087501746413033 pbc="F F F"
Ni       0.00000000       0.00000000       0.00000000       0.00000000       0.00000000       1.43910325
Ni       0.00000000       0.00000000       2.88424242       0.00000000       0.00000000      -1.43910325
2
Properties=species:S:1:pos:R:3:forces:R:3 energy=-3.0263540151083297 pbc="F F F"
Ni       0.00000000       0.00000000       0.00000000       0.00000000       0.00000000       1.36163747
Ni       0.00000000       0.00000000       2.94303030       0.00000000       0.00000000      -1.36163747
2
Properties=species:S:1:pos:R:3:forces:R:3 energy=-2.9488697643479616 pbc="F F F"
Ni       0.00000000       0.00000000       0.00000000       0.00000000       0.00000000       1.27323914
Ni       0.00000000       0.00000000       3.00181818       0.00000000       0.00000000      -1.27323914
2
Properties=species:S:1:pos:R:3:forces:R:3 energy=-2.8767183671761476 pbc="F F F"
Ni       0.00000000       0.00000000       0.00000000       0.00000000       0.00000000       1.18143356
Ni       0.00000000       0.00000000       3.06060606       0.00000000       0.00000000      -1.18143356
2
Properties=species:S:1:pos:R:3:forces:R:3 energy=-2.809898326364629 pbc="F F F"
Ni       0.00000000       0.00000000       0.00000000       0.00000000       0.00000000       1.09283936
Ni       0.00000000       0.00000000       3.11939394       0.00000000       0.00000000      -1.09283936
2
Properties=species:S:1:pos:R:3:forces:R:3 energy=-2.7480723142775028 pbc="F F F"
Ni       0.00000000       0.00000000       0.00000000       0.00000000       0.00000000       1.01204240
Ni       0.00000000       0.00000000       3.17818182       0.00000000       0.00000000      -1.01204240
2
Properties=species:S:1:pos:R:3:forces:R:3 energy=-2.6907082556495086 pbc="F F F"
Ni       0.00000000       0.00000000       0.00000000       0.00000000       0.00000000       0.94127983
Ni       0.00000000       0.00000000       3.23696970       0.00000000       0.00000000      -0.94127983
2
Properties=species:S:1:pos:R:3:forces:R:3 energy=-2.637200494909369 pbc="F F F"
Ni       0.00000000       0.00000000       0.00000000       0.00000000       0.00000000       0.88070822
Ni       0.00000000       0.00000000       3.29575758       0.00000000       0.00000000      -0.88070822
2
Properties=species:S:1:pos:R:3:forces:R:3 energy=-2.586984452509663 pbc="F F F"
Ni       0.00000000       0.00000000       0.00000000       0.00000000       0.00000000       0.82897520
Ni       0.00000000       0.00000000       3.35454545       0.00000000       0.00000000      -0.82897520
2
Properties=species:S:1:pos:R:3:forces:R:3 energy=-2.5396033821289747 pbc="F F F"
Ni       0.00000000       0.00000000       0.00000000       0.00000000       0.00000000       0.78385031
Ni       0.00000000       0.00000000       3.41333333       0.00000000       0.00000000      -0.78385031
2
Properties=species:S:1:pos:R:3:forces:R:3 energy=-2.494742298138117 pbc="F F F"
Ni       0.00000000       0.00000000       0.00000000       0.00000000       0.00000000       0.74281967
Ni       0.00000000       0.00000000       3.47212121       0.00000000       0.00000000      -0.74281967
2
Properties=species:S:1:pos:R:3:forces:R:3 energy=-2.4522302013948156 pbc="F F F"
Ni       0.00000000       0.00000000       0.00000000       0.00000000       0.00000000       0.70363200
Ni       0.00000000       0.00000000       3.53090909       0.00000000       0.00000000      -0.70363200
2
Properties=species:S:1:pos:R:3:forces:R:3 energy=-2.412008378244237 pbc="F F F"
Ni       0.00000000       0.00000000       0.00000000       0.00000000       0.00000000       0.66468024
Ni       0.00000000       0.00000000       3.58969697       0.00000000       0.00000000      -0.66468024
2
Properties=species:S:1:pos:R:3:forces:R:3 energy=-2.374090441232363 pbc="F F F"
Ni       0.00000000       0.00000000       0.00000000       0.00000000       0.00000000       0.62520456
Ni       0.00000000       0.00000000       3.64848485       0.00000000       0.00000000      -0.62520456
2
Properties=species:S:1:pos:R:3:forces:R:3 energy=-2.3385098770185895 pbc="F F F"
Ni       0.00000000       0.00000000       0.00000000       0.00000000       0.00000000       0.58523953
Ni       0.00000000       0.00000000       3.70727273       0.00000000       0.00000000      -0.58523953
2
Properties=species:S:1:pos:R:3:forces:R:3 energy=-2.3052783738095366 pbc="F F F"
Ni       0.00000000       0.00000000       0.00000000       0.00000000       0.00000000       0.54538512
Ni       0.00000000       0.00000000       3.76606061       0.00000000       0.00000000      -0.54538512
2
Properties=species:S:1:pos:R:3:forces:R:3 energy=-2.2743665411323652 pbc="F F F"
Ni       0.00000000       0.00000000       0.00000000       0.00000000       0.00000000       0.50650656
Ni       0.00000000       0.00000000       3.82484848       0.00000000       0.00000000      -0.50650656
2
Properties=species:S:1:pos:R:3:forces:R:3 energy=-2.2456895540348745 pbc="F F F"
Ni       0.00000000       0.00000000       0.00000000       0.00000000       0.00000000       0.46944934
Ni       0.00000000       0.00000000       3.88363636       0.00000000       0.00000000      -0.46944934
2
Properties=species:S:1:pos:R:3:forces:R:3 energy=-2.2191218906878962 pbc="F F F"
Ni       0.00000000       0.00000000       0.00000000       0.00000000       0.00000000       0.43485802
Ni       0.00000000       0.00000000       3.94242424       0.00000000       0.00000000      -0.43485802
2
Properties=species:S:1:pos:R:3:forces:R:3 energy=-2.194505575665256 pbc="F F F"
Ni       0.00000000       0.00000000       0.00000000       0.00000000       0.00000000       0.40310270
Ni       0.00000000       0.00000000       4.00121212       0.00000000       0.00000000      -0.40310270
2
Properties=species:S:1:pos:R:3:forces:R:3 energy=-2.171669114045925 pbc="F F F"
Ni       0.00000000       0.00000000       0.00000000       0.00000000       0.00000000       0.37429017
Ni       0.00000000       0.00000000       4.06000000       0.00000000       0.00000000      -0.37429017
2
Properties=species:S:1:pos:R:3:forces:R:3 energy=-2.150441882891885 pbc="F F F"
Ni       0.00000000       0.00000000       0.00000000       0.00000000       0.00000000       0.34833395
Ni       0.00000000       0.00000000       4.11878788       0.00000000       0.00000000      -0.34833395
2
Properties=species:S:1:pos:R:3:forces:R:3 energy=-2.1306615800767936 pbc="F F F"
Ni       0.00000000       0.00000000       0.00000000       0.00000000       0.00000000       0.32501274
Ni       0.00000000       0.00000000       4.17757576       0.00000000       0.00000000      -0.32501274
2
Properties=species:S:1:pos:R:3:forces:R:3 energy=-2.1121821182735916 pbc="F F F"
Ni       0.00000000       0.00000000       0.00000000       0.00000000       0.00000000       0.30403233
Ni       0.00000000       0.00000000       4.23636364       0.00000000       0.00000000      -0.30403233
2
Properties=species:S:1:pos:R:3:forces:R:3 energy=-2.0948752852130084 pbc="F F F"
Ni       0.00000000       0.00000000       0.00000000       0.00000000       0.00000000       0.28505844
Ni       0.00000000       0.00000000       4.29515152       0.00000000       0.00000000      -0.28505844
2
Properties=species:S:1:pos:R:3:forces:R:3 energy=-2.0786336173777995 pbc="F F F"
Ni       0.00000000       0.00000000       0.00000000       0.00000000       0.00000000       0.26776248
Ni       0.00000000       0.00000000       4.35393939       0.00000000       0.00000000      -0.26776248
2
Properties=species:S:1:pos:R:3:forces:R:3 energy=-2.063366275690829 pbc="F F F"
Ni       0.00000000       0.00000000       0.00000000       0.00000000       0.00000000       0.25184858
Ni       0.00000000       0.00000000       4.41272727       0.00000000       0.00000000      -0.25184858
2
Properties=species:S:1:pos:R:3:forces:R:3 energy=-2.0489993567935567 pbc="F F F"
Ni       0.00000000       0.00000000       0.00000000       0.00000000       0.00000000       0.23709382
Ni       0.00000000       0.00000000       4.47151515       0.00000000       0.00000000      -0.23709382
2
Properties=species:S:1:pos:R:3:forces:R:3 energy=-2.035469171808362 pbc="F F F"
Ni       0.00000000       0.00000000       0.00000000       0.00000000       0.00000000       0.22337252
Ni       0.00000000       0.00000000       4.53030303       0.00000000       0.00000000      -0.22337252
2
Properties=species:S:1:pos:R:3:forces:R:3 energy=-2.0227170431434103 pbc="F F F"
Ni       0.00000000       0.00000000       0.00000000       0.00000000       0.00000000       0.21063703
Ni       0.00000000       0.00000000       4.58909091       0.00000000       0.00000000      -0.21063703
2
Properties=species:S:1:pos:R:3:forces:R:3 energy=-2.010684466428982 pbc="F F F"
Ni       0.00000000       0.00000000       0.00000000       0.00000000       0.00000000       0.19887947
Ni       0.00000000       0.00000000       4.64787879       0.00000000       0.00000000      -0.19887947
2
Properties=species:S:1:pos:R:3:forces:R:3 energy=-1.9993150400408615 pbc="F F F"
Ni       0.00000000       0.00000000       0.00000000       0.00000000       0.00000000       0.18805607
Ni       0.00000000       0.00000000       4.70666667       0.00000000       0.00000000      -0.18805607
2
Properties=species:S:1:pos:R:3:forces:R:3 energy=-1.9885574473324465 pbc="F F F"
Ni       0.00000000       0.00000000       0.00000000       0.00000000       0.00000000       0.17804861
Ni       0.00000000       0.00000000       4.76545455       0.00000000       0.00000000      -0.17804861
2
Properties=species:S:1:pos:R:3:forces:R:3 energy=-1.9783688546834748 pbc="F F F"
Ni       0.00000000       0.00000000       0.00000000       0.00000000       0.00000000       0.16865121
Ni       0.00000000       0.00000000       4.82424242       0.00000000       0.00000000      -0.16865121
2
Properties=species:S:1:pos:R:3:forces:R:3 energy=-1.9687206873989005 pbc="F F F"
Ni       0.00000000       0.00000000       0.00000000       0.00000000       0.00000000       0.15967074
Ni       0.00000000       0.00000000       4.88303030       0.00000000       0.00000000      -0.15967074
2
Properties=species:S:1:pos:R:3:forces:R:3 energy=-1.9595885812825269 pbc="F F F"
Ni       0.00000000       0.00000000       0.00000000       0.00000000       0.00000000       0.15106151
Ni       0.00000000       0.00000000       4.94181818       0.00000000       0.00000000      -0.15106151
2
Properties=species:S:1:pos:R:3:forces:R:3 energy=-1.950946533046306 pbc="F F F"
Ni       0.00000000       0.00000000       0.00000000       0.00000000       0.00000000       0.14307919
Ni       0.00000000       0.00000000       5.00060606       0.00000000       0.00000000      -0.14307919
2
Properties=species:S:1:pos:R:3:forces:R:3 energy=-1.9427426112936195 pbc="F F F"
Ni       0.00000000       0.00000000       0.00000000       0.00000000       0.00000000       0.13626713
Ni       0.00000000       0.00000000       5.05939394       0.00000000       0.00000000      -0.13626713
2
Properties=species:S:1:pos:R:3:forces:R:3 energy=-1.934890799602436 pbc="F F F"
Ni       0.00000000       0.00000000       0.00000000       0.00000000       0.00000000       0.13116604
Ni       0.00000000       0.00000000       5.11818182       0.00000000       0.00000000      -0.13116604
2
Properties=species:S:1:pos:R:3:forces:R:3 energy=-1.9272886834337162 pbc="F F F"
Ni       0.00000000       0.00000000       0.00000000       0.00000000       0.00000000       0.12768029
Ni       0.00000000       0.00000000       5.17696970       0.00000000       0.00000000      -0.12768029
2
Properties=species:S:1:pos:R:3:forces:R:3 energy=-1.9198734258124754 pbc="F F F"
Ni       0.00000000       0.00000000       0.00000000       0.00000000       0.00000000       0.12446547
Ni       0.00000000       0.00000000       5.23575758       0.00000000       0.00000000      -0.12446547
2
Properties=species:S:1:pos:R:3:forces:R:3 energy=-1.912696120246374 pbc="F F F"
Ni       0.00000000       0.00000000       0.00000000       0.00000000       0.00000000       0.11916830
Ni       0.00000000       0.00000000       5.29454545       0.00000000       0.00000000      -0.11916830
2
Properties=species:S:1:pos:R:3:forces:R:3 energy=-1.905941299451555 pbc="F F F"
Ni       0.00000000       0.00000000       0.00000000       0.00000000       0.00000000       0.10987871
Ni       0.00000000       0.00000000       5.35333333       0.00000000       0.00000000      -0.10987871
2
Properties=species:S:1:pos:R:3:forces:R:3 energy=-1.8998590193197333 pbc="F F F"
Ni       0.00000000       0.00000000       0.00000000       0.00000000       0.00000000       0.09641594
Ni       0.00000000       0.00000000       5.41212121       0.00000000       0.00000000      -0.09641594
2
Properties=species:S:1:pos:R:3:forces:R:3 energy=-1.8946629203044718 pbc="F F F"
Ni       0.00000000       0.00000000       0.00000000       0.00000000       0.00000000       0.08000875
Ni       0.00000000       0.00000000       5.47090909       0.00000000       0.00000000      -0.08000875
2
Properties=species:S:1:pos:R:3:forces:R:3 energy=-1.8904777004739983 pbc="F F F"
Ni       0.00000000       0.00000000       0.00000000       0.00000000       0.00000000       0.06228124
Ni       0.00000000       0.00000000       5.52969697       0.00000000       0.00000000      -0.06228124
2
Properties=species:S:1:pos:R:3:forces:R:3 energy=-1.8873332821755737 pbc="F F F"
Ni       0.00000000       0.00000000       0.00000000       0.00000000       0.00000000       0.04491068
Ni       0.00000000       0.00000000       5.58848485       0.00000000       0.00000000      -0.04491068
2
Properties=species:S:1:pos:R:3:forces:R:3 energy=-1.8851508641326555 pbc="F F F"
Ni       0.00000000       0.00000000       0.00000000       0.00000000       0.00000000       0.02992323
Ni       0.00000000       0.00000000       5.64727273       0.00000000       0.00000000      -0.02992323
2
Properties=species:S:1:pos:R:3:forces:R:3 energy=-1.883727381471657 pbc="F F F"
Ni       0.00000000       0.00000000       0.00000000       0.00000000       0.00000000       0.01935950
Ni       0.00000000       0.00000000       5.70606061       0.00000000       0.00000000      -0.01935950
2
Properties=species:S:1:pos:R:3:forces:R:3 energy=-1.882777165200888 pbc="F F F"
Ni       0.00000000       0.00000000       0.00000000       0.00000000       0.00000000       0.01369118
Ni       0.00000000       0.00000000       5.76484848       0.00000000       0.00000000      -0.01369118
2
Properties=species:S:1:pos:R:3:forces:R:3 energy=-1.882050269101788 pbc="F F F"
Ni       0.00000000       0.00000000       0.00000000       0.00000000       0.00000000       0.01143275
Ni       0.00000000       0.00000000       5.82363636       0.00000000       0.00000000      -0.01143275
2
Properties=species:S:1:pos:R:3:forces:R:3 energy=-1.881404520865061 pbc="F F F"
Ni       0.00000000       0.00000000       0.00000000       0.00000000       0.00000000       0.01065558
Ni       0.00000000       0.00000000       5.88242424       0.00000000       0.00000000      -0.01065558
2
Properties=species:S:1:pos:R:3:forces:R:3 energy=-1.88079105854486 pbc="F F F"
Ni       0.00000000       0.00000000       0.00000000       0.00000000       0.00000000       0.01022548
Ni       0.00000000       0.00000000       5.94121212       0.00000000       0.00000000      -0.01022548
2
Properties=species:S:1:pos:R:3:forces:R:3 energy=-1.8802041386961525 pbc="F F F"
Ni       0.00000000       0.00000000       0.00000000       0.00000000       0.00000000       0.00971282
Ni       0.00000000       0.00000000       6.00000000       0.00000000       0.00000000      -0.00971282
