2
Properties=species:S:1:pos:R:3:forces:R:3 energy=633.4477980452158 pbc="F F F"
O        0.00000000       0.00000000       0.00000000       0.00000000       0.00000000   -7712.74707031
O        0.00000000       0.00000000       0.18000000       0.00000000       0.00000000    7712.74707031
2
Properties=species:S:1:pos:R:3:forces:R:3 energy=341.2595045897685 pbc="F F F"
O        0.00000000       0.00000000       0.00000000       0.00000000       0.00000000   -3059.09765625
O        0.00000000       0.00000000       0.23878788       0.00000000       0.00000000    3059.09765625
2
Properties=species:S:1:pos:R:3:forces:R:3 energy=219.40791157377427 pbc="F F F"
O        0.00000000       0.00000000       0.00000000       0.00000000       0.00000000   -1338.54528809
O        0.00000000       0.00000000       0.29757576       0.00000000       0.00000000    1338.54528809
2
Properties=species:S:1:pos:R:3:forces:R:3 energy=165.4741194642682 pbc="F F F"
O        0.00000000       0.00000000       0.00000000       0.00000000       0.00000000    -594.21569824
O        0.00000000       0.00000000       0.35636364       0.00000000       0.00000000     594.21569824
2
Properties=species:S:1:pos:R:3:forces:R:3 energy=140.97862081812903 pbc="F F F"
O        0.00000000       0.00000000       0.00000000       0.00000000       0.00000000    -298.19659424
O        0.00000000       0.00000000       0.41515152       0.00000000       0.00000000     298.19659424
2
Properties=species:S:1:pos:R:3:forces:R:3 energy=124.58630211471784 pbc="F F F"
O        0.00000000       0.00000000       0.00000000       0.00000000       0.00000000    -296.84143066
O        0.00000000       0.00000000       0.47393939       0.00000000       0.00000000     296.84143066
2
Properties=species:S:1:pos:R:3:forces:R:3 energy=103.73996579115344 pbc="F F F"
O        0.00000000       0.00000000       0.00000000       0.00000000       0.00000000    -412.43267822
O        0.00000000       0.00000000       0.53272727       0.00000000       0.00000000     412.43267822
2
Properties=species:S:1:pos:R:3:forces:R:3 energy=78.06865544000061 pbc="F F F"
O        0.00000000       0.00000000       0.00000000       0.00000000       0.00000000    -439.34155273
O        0.00000000       0.00000000       0.59151515       0.00000000       0.00000000     439.34155273
2
Properties=species:S:1:pos:R:3:forces:R:3 energy=53.508944102495114 pbc="F F F"
O        0.00000000       0.00000000       0.00000000       0.00000000       0.00000000    -387.31329346
O        0.00000000       0.00000000       0.65030303       0.00000000       0.00000000     387.31329346
2
Properties=species:S:1:pos:R:3:forces:R:3 energy=33.34809376528623 pbc="F F F"
O        0.00000000       0.00000000       0.00000000       0.00000000       0.00000000    -296.85910034
O        0.00000000       0.00000000       0.70909091       0.00000000       0.00000000     296.85910034
2
Properties=species:S:1:pos:R:3:forces:R:3 energy=18.511994425756434 pbc="F F F"
O        0.00000000       0.00000000       0.00000000       0.00000000       0.00000000    -209.34210205
O        0.00000000       0.00000000       0.76787879       0.00000000       0.00000000     209.34210205
2
Properties=species:S:1:pos:R:3:forces:R:3 energy=8.314890391452343 pbc="F F F"
O        0.00000000       0.00000000       0.00000000       0.00000000       0.00000000    -142.57789612
O        0.00000000       0.00000000       0.82666667       0.00000000       0.00000000     142.57789612
2
Properties=species:S:1:pos:R:3:forces:R:3 energy=1.3335613138494145 pbc="F F F"
O        0.00000000       0.00000000       0.00000000       0.00000000       0.00000000     -96.80912781
O        0.00000000       0.00000000       0.88545455       0.00000000       0.00000000      96.80912781
2
Properties=species:S:1:pos:R:3:forces:R:3 energy=-3.257493479107245 pbc="F F F"
O        0.00000000       0.00000000       0.00000000       0.00000000       0.00000000     -61.27288437
O        0.00000000       0.00000000       0.94424242       0.00000000       0.00000000      61.27288437
2
Properties=species:S:1:pos:R:3:forces:R:3 energy=-6.104940682146607 pbc="F F F"
O        0.00000000       0.00000000       0.00000000       0.00000000       0.00000000     -37.37189484
O        0.00000000       0.00000000       1.00303030       0.00000000       0.00000000      37.37189484
2
Properties=species:S:1:pos:R:3:forces:R:3 energy=-7.816578086675825 pbc="F F F"
O        0.00000000       0.00000000       0.00000000       0.00000000       0.00000000     -21.95951843
O        0.00000000       0.00000000       1.06181818       0.00000000       0.00000000      21.95951843
2
Properties=species:S:1:pos:R:3:forces:R:3 energy=-8.78975023045119 pbc="F F F"
O        0.00000000       0.00000000       0.00000000       0.00000000       0.00000000     -11.81597328
O        0.00000000       0.00000000       1.12060606       0.00000000       0.00000000      11.81597328
2
Properties=species:S:1:pos:R:3:forces:R:3 energy=-9.26496379020848 pbc="F F F"
O        0.00000000       0.00000000       0.00000000       0.00000000       0.00000000      -4.74232292
O        0.00000000       0.00000000       1.17939394       0.00000000       0.00000000       4.74232292
2
Properties=species:S:1:pos:R:3:forces:R:3 energy=-9.3886652173065 pbc="F F F"
O        0.00000000       0.00000000       0.00000000       0.00000000       0.00000000       0.20444460
O        0.00000000       0.00000000       1.23818182       0.00000000       0.00000000      -0.20444460
2
Properties=species:S:1:pos:R:3:forces:R:3 energy=-9.275673728603145 pbc="F F F"
O        0.00000000       0.00000000       0.00000000       0.00000000       0.00000000       3.39033222
O        0.00000000       0.00000000       1.29696970       0.00000000       0.00000000      -3.39033222
2
Properties=species:S:1:pos:R:3:forces:R:3 energy=-9.013318684596952 pbc="F F F"
O        0.00000000       0.00000000       0.00000000       0.00000000       0.00000000       5.38864088
O        0.00000000       0.00000000       1.35575758       0.00000000       0.00000000      -5.38864088
2
Properties=species:S:1:pos:R:3:forces:R:3 energy=-8.655040990716783 pbc="F F F"
O        0.00000000       0.00000000       0.00000000       0.00000000       0.00000000       6.71767998
O        0.00000000       0.00000000       1.41454545       0.00000000       0.00000000      -6.71767998
2
Properties=species:S:1:pos:R:3:forces:R:3 energy=-8.230855545896954 pbc="F F F"
O        0.00000000       0.00000000       0.00000000       0.00000000       0.00000000       7.66356230
O        0.00000000       0.00000000       1.47333333       0.00000000       0.00000000      -7.66356230
2
Properties=species:S:1:pos:R:3:forces:R:3 energy=-7.759917405452294 pbc="F F F"
O        0.00000000       0.00000000       0.00000000       0.00000000       0.00000000       8.30054951
O        0.00000000       0.00000000       1.53212121       0.00000000       0.00000000      -8.30054951
2
Properties=species:S:1:pos:R:3:forces:R:3 energy=-7.2620275244559185 pbc="F F F"
O        0.00000000       0.00000000       0.00000000       0.00000000       0.00000000       8.58603764
O        0.00000000       0.00000000       1.59090909       0.00000000       0.00000000      -8.58603764
2
Properties=species:S:1:pos:R:3:forces:R:3 energy=-6.753680987166383 pbc="F F F"
O        0.00000000       0.00000000       0.00000000       0.00000000       0.00000000       8.70379829
O        0.00000000       0.00000000       1.64969697       0.00000000       0.00000000      -8.70379829
2
Properties=species:S:1:pos:R:3:forces:R:3 energy=-6.238358591981567 pbc="F F F"
O        0.00000000       0.00000000       0.00000000       0.00000000       0.00000000       8.82327938
O        0.00000000       0.00000000       1.70848485       0.00000000       0.00000000      -8.82327938
2
Properties=species:S:1:pos:R:3:forces:R:3 energy=-5.719505533573085 pbc="F F F"
O        0.00000000       0.00000000       0.00000000       0.00000000       0.00000000       8.77338696
O        0.00000000       0.00000000       1.76727273       0.00000000       0.00000000      -8.77338696
2
Properties=species:S:1:pos:R:3:forces:R:3 energy=-5.216463460431677 pbc="F F F"
O        0.00000000       0.00000000       0.00000000       0.00000000       0.00000000       8.23736954
O        0.00000000       0.00000000       1.82606061       0.00000000       0.00000000      -8.23736954
2
Properties=species:S:1:pos:R:3:forces:R:3 energy=-4.76334056723671 pbc="F F F"
O        0.00000000       0.00000000       0.00000000       0.00000000       0.00000000       7.08679533
O        0.00000000       0.00000000       1.88484848       0.00000000       0.00000000      -7.08679533
2
Properties=species:S:1:pos:R:3:forces:R:3 energy=-4.389990015176918 pbc="F F F"
O        0.00000000       0.00000000       0.00000000       0.00000000       0.00000000       5.59831142
O        0.00000000       0.00000000       1.94363636       0.00000000       0.00000000      -5.59831142
2
Properties=species:S:1:pos:R:3:forces:R:3 energy=-4.102457366038311 pbc="F F F"
O        0.00000000       0.00000000       0.00000000       0.00000000       0.00000000       4.23729038
O        0.00000000       0.00000000       2.00242424       0.00000000       0.00000000      -4.23729038
2
Properties=species:S:1:pos:R:3:forces:R:3 energy=-3.883860543656381 pbc="F F F"
O        0.00000000       0.00000000       0.00000000       0.00000000       0.00000000       3.26987624
O        0.00000000       0.00000000       2.06121212       0.00000000       0.00000000      -3.26987624
2
Properties=species:S:1:pos:R:3:forces:R:3 energy=-3.7107496791677446 pbc="F F F"
O        0.00000000       0.00000000       0.00000000       0.00000000       0.00000000       2.66799664
O        0.00000000       0.00000000       2.12000000       0.00000000       0.00000000      -2.66799664
2
Properties=species:S:1:pos:R:3:forces:R:3 energy=-3.566241137014771 pbc="F F F"
O        0.00000000       0.00000000       0.00000000       0.00000000       0.00000000       2.26785421
O        0.00000000       0.00000000       2.17878788       0.00000000       0.00000000      -2.26785421
2
Properties=species:S:1:pos:R:3:forces:R:3 energy=-3.443008040997046 pbc="F F F"
O        0.00000000       0.00000000       0.00000000       0.00000000       0.00000000       1.92642510
O        0.00000000       0.00000000       2.23757576       0.00000000       0.00000000      -1.92642510
2
Properties=species:S:1:pos:R:3:forces:R:3 energy=-3.339949734575936 pbc="F F F"
O        0.00000000       0.00000000       0.00000000       0.00000000       0.00000000       1.57648695
O        0.00000000       0.00000000       2.29636364       0.00000000       0.00000000      -1.57648695
2
Properties=species:S:1:pos:R:3:forces:R:3 energy=-3.257912603787176 pbc="F F F"
O        0.00000000       0.00000000       0.00000000       0.00000000       0.00000000       1.21429932
O        0.00000000       0.00000000       2.35515152       0.00000000       0.00000000      -1.21429932
2
Properties=species:S:1:pos:R:3:forces:R:3 energy=-3.1968880434670885 pbc="F F F"
O        0.00000000       0.00000000       0.00000000       0.00000000       0.00000000       0.86696452
O        0.00000000       0.00000000       2.41393939       0.00000000       0.00000000      -0.86696452
2
Properties=species:S:1:pos:R:3:forces:R:3 energy=-3.1550912886423985 pbc="F F F"
O        0.00000000       0.00000000       0.00000000       0.00000000       0.00000000       0.56439489
O        0.00000000       0.00000000       2.47272727       0.00000000       0.00000000      -0.56439489
2
Properties=species:S:1:pos:R:3:forces:R:3 energy=-3.129296189853293 pbc="F F F"
O        0.00000000       0.00000000       0.00000000       0.00000000       0.00000000       0.32421285
O        0.00000000       0.00000000       2.53151515       0.00000000       0.00000000      -0.32421285
2
Properties=species:S:1:pos:R:3:forces:R:3 energy=-3.1156902352390974 pbc="F F F"
O        0.00000000       0.00000000       0.00000000       0.00000000       0.00000000       0.14906894
O        0.00000000       0.00000000       2.59030303       0.00000000       0.00000000      -0.14906894
2
Properties=species:S:1:pos:R:3:forces:R:3 energy=-3.1106487194232875 pbc="F F F"
O        0.00000000       0.00000000       0.00000000       0.00000000       0.00000000       0.03091865
O        0.00000000       0.00000000       2.64909091       0.00000000       0.00000000      -0.03091865
2
Properties=species:S:1:pos:R:3:forces:R:3 energy=-3.1111880239577356 pbc="F F F"
O        0.00000000       0.00000000       0.00000000       0.00000000       0.00000000      -0.04301049
O        0.00000000       0.00000000       2.70787879       0.00000000       0.00000000       0.04301049
2
Properties=species:S:1:pos:R:3:forces:R:3 energy=-3.115095332076899 pbc="F F F"
O        0.00000000       0.00000000       0.00000000       0.00000000       0.00000000      -0.08566760
O        0.00000000       0.00000000       2.76666667       0.00000000       0.00000000       0.08566760
2
Properties=species:S:1:pos:R:3:forces:R:3 energy=-3.1208616409966465 pbc="F F F"
O        0.00000000       0.00000000       0.00000000       0.00000000       0.00000000      -0.10786691
O        0.00000000       0.00000000       2.82545455       0.00000000       0.00000000       0.10786691
2
Properties=species:S:1:pos:R:3:forces:R:3 energy=-3.1275346790337526 pbc="F F F"
O        0.00000000       0.00000000       0.00000000       0.00000000       0.00000000      -0.11760095
O        0.00000000       0.00000000       2.88424242       0.00000000       0.00000000       0.11760095
2
Properties=species:S:1:pos:R:3:forces:R:3 energy=-3.1345510399192773 pbc="F F F"
O        0.00000000       0.00000000       0.00000000       0.00000000       0.00000000      -0.12025959
O        0.00000000       0.00000000       2.94303030       0.00000000       0.00000000       0.12025959
2
Properties=species:S:1:pos:R:3:forces:R:3 energy=-3.141601708384309 pbc="F F F"
O        0.00000000       0.00000000       0.00000000       0.00000000       0.00000000      -0.11916278
O        0.00000000       0.00000000       3.00181818       0.00000000       0.00000000       0.11916278
2
Properties=species:S:1:pos:R:3:forces:R:3 energy=-3.1485252027031048 pbc="F F F"
O        0.00000000       0.00000000       0.00000000       0.00000000       0.00000000      -0.11613584
O        0.00000000       0.00000000       3.06060606       0.00000000       0.00000000       0.11613584
2
Properties=species:S:1:pos:R:3:forces:R:3 energy=-3.1552360237767827 pbc="F F F"
O        0.00000000       0.00000000       0.00000000       0.00000000       0.00000000      -0.11201963
O        0.00000000       0.00000000       3.11939394       0.00000000       0.00000000       0.11201963
2
Properties=species:S:1:pos:R:3:forces:R:3 energy=-3.1616795251217416 pbc="F F F"
O        0.00000000       0.00000000       0.00000000       0.00000000       0.00000000      -0.10708120
O        0.00000000       0.00000000       3.17818182       0.00000000       0.00000000       0.10708120
2
Properties=species:S:1:pos:R:3:forces:R:3 energy=-3.1678096987601143 pbc="F F F"
O        0.00000000       0.00000000       0.00000000       0.00000000       0.00000000      -0.10131704
O        0.00000000       0.00000000       3.23696970       0.00000000       0.00000000       0.10131704
2
Properties=species:S:1:pos:R:3:forces:R:3 energy=-3.173574084761222 pbc="F F F"
O        0.00000000       0.00000000       0.00000000       0.00000000       0.00000000      -0.09465086
O        0.00000000       0.00000000       3.29575758       0.00000000       0.00000000       0.09465086
2
Properties=species:S:1:pos:R:3:forces:R:3 energy=-3.1789199134998065 pbc="F F F"
O        0.00000000       0.00000000       0.00000000       0.00000000       0.00000000      -0.08705480
O        0.00000000       0.00000000       3.35454545       0.00000000       0.00000000       0.08705480
2
Properties=species:S:1:pos:R:3:forces:R:3 energy=-3.18379262366745 pbc="F F F"
O        0.00000000       0.00000000       0.00000000       0.00000000       0.00000000      -0.07857742
O        0.00000000       0.00000000       3.41333333       0.00000000       0.00000000       0.07857742
2
Properties=species:S:1:pos:R:3:forces:R:3 energy=-3.188143935638105 pbc="F F F"
O        0.00000000       0.00000000       0.00000000       0.00000000       0.00000000      -0.06935105
O        0.00000000       0.00000000       3.47212121       0.00000000       0.00000000       0.06935105
2
Properties=species:S:1:pos:R:3:forces:R:3 energy=-3.1919356194399877 pbc="F F F"
O        0.00000000       0.00000000       0.00000000       0.00000000       0.00000000      -0.05954814
O        0.00000000       0.00000000       3.53090909       0.00000000       0.00000000       0.05954814
2
Properties=species:S:1:pos:R:3:forces:R:3 energy=-3.1951380511768335 pbc="F F F"
O        0.00000000       0.00000000       0.00000000       0.00000000       0.00000000      -0.04936102
O        0.00000000       0.00000000       3.58969697       0.00000000       0.00000000       0.04936102
2
Properties=species:S:1:pos:R:3:forces:R:3 energy=-3.197735933093909 pbc="F F F"
O        0.00000000       0.00000000       0.00000000       0.00000000       0.00000000      -0.03896651
O        0.00000000       0.00000000       3.64848485       0.00000000       0.00000000       0.03896651
2
Properties=species:S:1:pos:R:3:forces:R:3 energy=-3.199718988521804 pbc="F F F"
O        0.00000000       0.00000000       0.00000000       0.00000000       0.00000000      -0.02853354
O        0.00000000       0.00000000       3.70727273       0.00000000       0.00000000       0.02853354
2
Properties=species:S:1:pos:R:3:forces:R:3 energy=-3.2010919912958635 pbc="F F F"
O        0.00000000       0.00000000       0.00000000       0.00000000       0.00000000      -0.01822581
O        0.00000000       0.00000000       3.76606061       0.00000000       0.00000000       0.01822581
2
Properties=species:S:1:pos:R:3:forces:R:3 energy=-3.201867630027873 pbc="F F F"
O        0.00000000       0.00000000       0.00000000       0.00000000       0.00000000      -0.00823299
O        0.00000000       0.00000000       3.82484848       0.00000000       0.00000000       0.00823299
2
Properties=species:S:1:pos:R:3:forces:R:3 energy=-3.20207105528409 pbc="F F F"
O        0.00000000       0.00000000       0.00000000       0.00000000       0.00000000       0.00122376
O        0.00000000       0.00000000       3.88363636       0.00000000       0.00000000      -0.00122376
2
Properties=species:S:1:pos:R:3:forces:R:3 energy=-3.201739195611754 pbc="F F F"
O        0.00000000       0.00000000       0.00000000       0.00000000       0.00000000       0.00989449
O        0.00000000       0.00000000       3.94242424       0.00000000       0.00000000      -0.00989449
2
Properties=species:S:1:pos:R:3:forces:R:3 energy=-3.200927451078299 pbc="F F F"
O        0.00000000       0.00000000       0.00000000       0.00000000       0.00000000       0.01754625
O        0.00000000       0.00000000       4.00121212       0.00000000       0.00000000      -0.01754625
2
Properties=species:S:1:pos:R:3:forces:R:3 energy=-3.1996994650311192 pbc="F F F"
O        0.00000000       0.00000000       0.00000000       0.00000000       0.00000000       0.02400877
O        0.00000000       0.00000000       4.06000000       0.00000000       0.00000000      -0.02400877
2
Properties=species:S:1:pos:R:3:forces:R:3 energy=-3.1981285813375426 pbc="F F F"
O        0.00000000       0.00000000       0.00000000       0.00000000       0.00000000       0.02923145
O        0.00000000       0.00000000       4.11878788       0.00000000       0.00000000      -0.02923145
2
Properties=species:S:1:pos:R:3:forces:R:3 energy=-3.1962854620618506 pbc="F F F"
O        0.00000000       0.00000000       0.00000000       0.00000000       0.00000000       0.03330621
O        0.00000000       0.00000000       4.17757576       0.00000000       0.00000000      -0.03330621
2
Properties=species:S:1:pos:R:3:forces:R:3 energy=-3.1942309517369596 pbc="F F F"
O        0.00000000       0.00000000       0.00000000       0.00000000       0.00000000       0.03645987
O        0.00000000       0.00000000       4.23636364       0.00000000       0.00000000      -0.03645987
2
Properties=species:S:1:pos:R:3:forces:R:3 energy=-3.1920106095762137 pbc="F F F"
O        0.00000000       0.00000000       0.00000000       0.00000000       0.00000000       0.03899734
O        0.00000000       0.00000000       4.29515152       0.00000000       0.00000000      -0.03899734
2
Properties=species:S:1:pos:R:3:forces:R:3 energy=-3.189651390125238 pbc="F F F"
O        0.00000000       0.00000000       0.00000000       0.00000000       0.00000000       0.04124171
O        0.00000000       0.00000000       4.35393939       0.00000000       0.00000000      -0.04124171
2
Properties=species:S:1:pos:R:3:forces:R:3 energy=-3.187162355646834 pbc="F F F"
O        0.00000000       0.00000000       0.00000000       0.00000000       0.00000000       0.04345129
O        0.00000000       0.00000000       4.41272727       0.00000000       0.00000000      -0.04345129
2
Properties=species:S:1:pos:R:3:forces:R:3 energy=-3.184540176181381 pbc="F F F"
O        0.00000000       0.00000000       0.00000000       0.00000000       0.00000000       0.04577951
O        0.00000000       0.00000000       4.47151515       0.00000000       0.00000000      -0.04577951
2
Properties=species:S:1:pos:R:3:forces:R:3 energy=-3.181776528046363 pbc="F F F"
O        0.00000000       0.00000000       0.00000000       0.00000000       0.00000000       0.04826048
O        0.00000000       0.00000000       4.53030303       0.00000000       0.00000000      -0.04826048
2
Properties=species:S:1:pos:R:3:forces:R:3 energy=-3.1788640527169343 pbc="F F F"
O        0.00000000       0.00000000       0.00000000       0.00000000       0.00000000       0.05083767
O        0.00000000       0.00000000       4.58909091       0.00000000       0.00000000      -0.05083767
2
Properties=species:S:1:pos:R:3:forces:R:3 energy=-3.1757997013186583 pbc="F F F"
O        0.00000000       0.00000000       0.00000000       0.00000000       0.00000000       0.05340083
O        0.00000000       0.00000000       4.64787879       0.00000000       0.00000000      -0.05340083
2
Properties=species:S:1:pos:R:3:forces:R:3 energy=-3.172588076348393 pbc="F F F"
O        0.00000000       0.00000000       0.00000000       0.00000000       0.00000000       0.05583921
O        0.00000000       0.00000000       4.70666667       0.00000000       0.00000000      -0.05583921
2
Properties=species:S:1:pos:R:3:forces:R:3 energy=-3.169238329658913 pbc="F F F"
O        0.00000000       0.00000000       0.00000000       0.00000000       0.00000000       0.05808439
O        0.00000000       0.00000000       4.76545455       0.00000000       0.00000000      -0.05808439
2
Properties=species:S:1:pos:R:3:forces:R:3 energy=-3.1657624972906393 pbc="F F F"
O        0.00000000       0.00000000       0.00000000       0.00000000       0.00000000       0.06011595
O        0.00000000       0.00000000       4.82424242       0.00000000       0.00000000      -0.06011595
2
Properties=species:S:1:pos:R:3:forces:R:3 energy=-3.1621740687126816 pbc="F F F"
O        0.00000000       0.00000000       0.00000000       0.00000000       0.00000000       0.06195652
O        0.00000000       0.00000000       4.88303030       0.00000000       0.00000000      -0.06195652
2
Properties=species:S:1:pos:R:3:forces:R:3 energy=-3.1584817856134113 pbc="F F F"
O        0.00000000       0.00000000       0.00000000       0.00000000       0.00000000       0.06361634
O        0.00000000       0.00000000       4.94181818       0.00000000       0.00000000      -0.06361634
2
Properties=species:S:1:pos:R:3:forces:R:3 energy=-3.1546982261572434 pbc="F F F"
O        0.00000000       0.00000000       0.00000000       0.00000000       0.00000000       0.06503902
O        0.00000000       0.00000000       5.00060606       0.00000000       0.00000000      -0.06503902
2
Properties=species:S:1:pos:R:3:forces:R:3 energy=-3.150841474310667 pbc="F F F"
O        0.00000000       0.00000000       0.00000000       0.00000000       0.00000000       0.06609834
O        0.00000000       0.00000000       5.05939394       0.00000000       0.00000000      -0.06609834
2
Properties=species:S:1:pos:R:3:forces:R:3 energy=-3.146934877463888 pbc="F F F"
O        0.00000000       0.00000000       0.00000000       0.00000000       0.00000000       0.06676082
O        0.00000000       0.00000000       5.11818182       0.00000000       0.00000000      -0.06676082
2
Properties=species:S:1:pos:R:3:forces:R:3 energy=-3.1429920274462697 pbc="F F F"
O        0.00000000       0.00000000       0.00000000       0.00000000       0.00000000       0.06747389
O        0.00000000       0.00000000       5.17696970       0.00000000       0.00000000      -0.06747389
2
Properties=species:S:1:pos:R:3:forces:R:3 energy=-3.1389807569450205 pbc="F F F"
O        0.00000000       0.00000000       0.00000000       0.00000000       0.00000000       0.06926724
O        0.00000000       0.00000000       5.23575758       0.00000000       0.00000000      -0.06926724
2
Properties=species:S:1:pos:R:3:forces:R:3 energy=-3.1348147948549254 pbc="F F F"
O        0.00000000       0.00000000       0.00000000       0.00000000       0.00000000       0.07268658
O        0.00000000       0.00000000       5.29454545       0.00000000       0.00000000      -0.07268658
2
Properties=species:S:1:pos:R:3:forces:R:3 energy=-3.130433158130773 pbc="F F F"
O        0.00000000       0.00000000       0.00000000       0.00000000       0.00000000       0.07612374
O        0.00000000       0.00000000       5.35333333       0.00000000       0.00000000      -0.07612374
2
Properties=species:S:1:pos:R:3:forces:R:3 energy=-3.1259195978373295 pbc="F F F"
O        0.00000000       0.00000000       0.00000000       0.00000000       0.00000000       0.07681189
O        0.00000000       0.00000000       5.41212121       0.00000000       0.00000000      -0.07681189
2
Properties=species:S:1:pos:R:3:forces:R:3 energy=-3.121468028009893 pbc="F F F"
O        0.00000000       0.00000000       0.00000000       0.00000000       0.00000000       0.07422008
O        0.00000000       0.00000000       5.47090909       0.00000000       0.00000000      -0.07422008
2
Properties=species:S:1:pos:R:3:forces:R:3 energy=-3.1172139630011593 pbc="F F F"
O        0.00000000       0.00000000       0.00000000       0.00000000       0.00000000       0.07057206
O        0.00000000       0.00000000       5.52969697       0.00000000       0.00000000      -0.07057206
2
Properties=species:S:1:pos:R:3:forces:R:3 energy=-3.1131417706988103 pbc="F F F"
O        0.00000000       0.00000000       0.00000000       0.00000000       0.00000000       0.06830145
O        0.00000000       0.00000000       5.58848485       0.00000000       0.00000000      -0.06830145
2
Properties=species:S:1:pos:R:3:forces:R:3 energy=-3.1091588214213255 pbc="F F F"
O        0.00000000       0.00000000       0.00000000       0.00000000       0.00000000       0.06713435
O        0.00000000       0.00000000       5.64727273       0.00000000       0.00000000      -0.06713435
2
Properties=species:S:1:pos:R:3:forces:R:3 energy=-3.105307200968123 pbc="F F F"
O        0.00000000       0.00000000       0.00000000       0.00000000       0.00000000       0.06304705
O        0.00000000       0.00000000       5.70606061       0.00000000       0.00000000      -0.06304705
2
Properties=species:S:1:pos:R:3:forces:R:3 energy=-3.1018776750221 pbc="F F F"
O        0.00000000       0.00000000       0.00000000       0.00000000       0.00000000       0.05216748
O        0.00000000       0.00000000       5.76484848       0.00000000       0.00000000      -0.05216748
2
Properties=species:S:1:pos:R:3:forces:R:3 energy=-3.099289525888785 pbc="F F F"
O        0.00000000       0.00000000       0.00000000       0.00000000       0.00000000       0.03540150
O        0.00000000       0.00000000       5.82363636       0.00000000       0.00000000      -0.03540150
2
Properties=species:S:1:pos:R:3:forces:R:3 energy=-3.09773864439671 pbc="F F F"
O        0.00000000       0.00000000       0.00000000       0.00000000       0.00000000       0.01785496
O        0.00000000       0.00000000       5.88242424       0.00000000       0.00000000      -0.01785496
2
Properties=species:S:1:pos:R:3:forces:R:3 energy=-3.0970976334284654 pbc="F F F"
O        0.00000000       0.00000000       0.00000000       0.00000000       0.00000000       0.00496368
O        0.00000000       0.00000000       5.94121212       0.00000000       0.00000000      -0.00496368
2
Properties=species:S:1:pos:R:3:forces:R:3 energy=-3.096991862185256 pbc="F F F"
O        0.00000000       0.00000000       0.00000000       0.00000000       0.00000000       0.00021801
O        0.00000000       0.00000000       6.00000000       0.00000000       0.00000000      -0.00021801
