2
Properties=species:S:1:pos:R:3:forces:R:3 energy=7684.758906250533 pbc="F F F"
Pd       0.00000000       0.00000000       0.00000000       0.00000000       0.00000000 -127264.35156250
Pd       0.00000000       0.00000000       0.18000000       0.00000000       0.00000000  127264.35156250
2
Properties=species:S:1:pos:R:3:forces:R:3 energy=3149.815302734908 pbc="F F F"
Pd       0.00000000       0.00000000       0.00000000       0.00000000       0.00000000  -44117.91406250
Pd       0.00000000       0.00000000       0.23878788       0.00000000       0.00000000   44117.91406250
2
Properties=species:S:1:pos:R:3:forces:R:3 energy=1453.8881787114706 pbc="F F F"
Pd       0.00000000       0.00000000       0.00000000       0.00000000       0.00000000  -18024.84960938
Pd       0.00000000       0.00000000       0.29757576       0.00000000       0.00000000   18024.84960938
2
Properties=species:S:1:pos:R:3:forces:R:3 energy=727.2460278389 pbc="F F F"
Pd       0.00000000       0.00000000       0.00000000       0.00000000       0.00000000   -8155.28222656
Pd       0.00000000       0.00000000       0.35636364       0.00000000       0.00000000    8155.28222656
2
Properties=species:S:1:pos:R:3:forces:R:3 energy=387.70192994801283 pbc="F F F"
Pd       0.00000000       0.00000000       0.00000000       0.00000000       0.00000000   -3954.91479492
Pd       0.00000000       0.00000000       0.41515152       0.00000000       0.00000000    3954.91479492
2
Properties=species:S:1:pos:R:3:forces:R:3 energy=219.0380963488557 pbc="F F F"
Pd       0.00000000       0.00000000       0.00000000       0.00000000       0.00000000   -2019.94091797
Pd       0.00000000       0.00000000       0.47393939       0.00000000       0.00000000    2019.94091797
2
Properties=species:S:1:pos:R:3:forces:R:3 energy=131.24595160831112 pbc="F F F"
Pd       0.00000000       0.00000000       0.00000000       0.00000000       0.00000000   -1074.55175781
Pd       0.00000000       0.00000000       0.53272727       0.00000000       0.00000000    1074.55175781
2
Properties=species:S:1:pos:R:3:forces:R:3 energy=83.83388044047241 pbc="F F F"
Pd       0.00000000       0.00000000       0.00000000       0.00000000       0.00000000    -590.33087158
Pd       0.00000000       0.00000000       0.59151515       0.00000000       0.00000000     590.33087158
2
Properties=species:S:1:pos:R:3:forces:R:3 energy=57.468493575784265 pbc="F F F"
Pd       0.00000000       0.00000000       0.00000000       0.00000000       0.00000000    -332.80056763
Pd       0.00000000       0.00000000       0.65030303       0.00000000       0.00000000     332.80056763
2
Properties=species:S:1:pos:R:3:forces:R:3 energy=42.4789727012284 pbc="F F F"
Pd       0.00000000       0.00000000       0.00000000       0.00000000       0.00000000    -190.56909180
Pd       0.00000000       0.00000000       0.70909091       0.00000000       0.00000000     190.56909180
2
Properties=species:S:1:pos:R:3:forces:R:3 energy=33.90475418881506 pbc="F F F"
Pd       0.00000000       0.00000000       0.00000000       0.00000000       0.00000000    -108.34627533
Pd       0.00000000       0.00000000       0.76787879       0.00000000       0.00000000     108.34627533
2
Properties=species:S:1:pos:R:3:forces:R:3 energy=29.087146654469006 pbc="F F F"
Pd       0.00000000       0.00000000       0.00000000       0.00000000       0.00000000     -59.85641098
Pd       0.00000000       0.00000000       0.82666667       0.00000000       0.00000000      59.85641098
2
Properties=species:S:1:pos:R:3:forces:R:3 energy=26.459087764610054 pbc="F F F"
Pd       0.00000000       0.00000000       0.00000000       0.00000000       0.00000000     -32.36754227
Pd       0.00000000       0.00000000       0.88545455       0.00000000       0.00000000      32.36754227
2
Properties=species:S:1:pos:R:3:forces:R:3 energy=25.008118768653826 pbc="F F F"
Pd       0.00000000       0.00000000       0.00000000       0.00000000       0.00000000     -18.89222336
Pd       0.00000000       0.00000000       0.94424242       0.00000000       0.00000000      18.89222336
2
Properties=species:S:1:pos:R:3:forces:R:3 energy=24.054926063953154 pbc="F F F"
Pd       0.00000000       0.00000000       0.00000000       0.00000000       0.00000000     -14.79769421
Pd       0.00000000       0.00000000       1.00303030       0.00000000       0.00000000      14.79769421
2
Properties=species:S:1:pos:R:3:forces:R:3 energy=23.150390158664678 pbc="F F F"
Pd       0.00000000       0.00000000       0.00000000       0.00000000       0.00000000     -16.71352196
Pd       0.00000000       0.00000000       1.06181818       0.00000000       0.00000000      16.71352196
2
Properties=species:S:1:pos:R:3:forces:R:3 energy=22.036946596809685 pbc="F F F"
Pd       0.00000000       0.00000000       0.00000000       0.00000000       0.00000000     -21.31960487
Pd       0.00000000       0.00000000       1.12060606       0.00000000       0.00000000      21.31960487
2
Properties=species:S:1:pos:R:3:forces:R:3 energy=20.65776412623084 pbc="F F F"
Pd       0.00000000       0.00000000       0.00000000       0.00000000       0.00000000     -25.26257133
Pd       0.00000000       0.00000000       1.17939394       0.00000000       0.00000000      25.26257133
2
Properties=species:S:1:pos:R:3:forces:R:3 energy=19.111689312355733 pbc="F F F"
Pd       0.00000000       0.00000000       0.00000000       0.00000000       0.00000000     -27.07206535
Pd       0.00000000       0.00000000       1.23818182       0.00000000       0.00000000      27.07206535
2
Properties=species:S:1:pos:R:3:forces:R:3 energy=17.474444044794655 pbc="F F F"
Pd       0.00000000       0.00000000       0.00000000       0.00000000       0.00000000     -28.85083008
Pd       0.00000000       0.00000000       1.29696970       0.00000000       0.00000000      28.85083008
2
Properties=species:S:1:pos:R:3:forces:R:3 energy=15.692289906890476 pbc="F F F"
Pd       0.00000000       0.00000000       0.00000000       0.00000000       0.00000000     -31.90175629
Pd       0.00000000       0.00000000       1.35575758       0.00000000       0.00000000      31.90175629
2
Properties=species:S:1:pos:R:3:forces:R:3 energy=13.727160231034496 pbc="F F F"
Pd       0.00000000       0.00000000       0.00000000       0.00000000       0.00000000     -34.80241776
Pd       0.00000000       0.00000000       1.41454545       0.00000000       0.00000000      34.80241776
2
Properties=species:S:1:pos:R:3:forces:R:3 energy=11.625132983084859 pbc="F F F"
Pd       0.00000000       0.00000000       0.00000000       0.00000000       0.00000000     -36.46627808
Pd       0.00000000       0.00000000       1.47333333       0.00000000       0.00000000      36.46627808
2
Properties=species:S:1:pos:R:3:forces:R:3 energy=9.4694737115293 pbc="F F F"
Pd       0.00000000       0.00000000       0.00000000       0.00000000       0.00000000     -36.61584473
Pd       0.00000000       0.00000000       1.53212121       0.00000000       0.00000000      36.61584473
2
Properties=species:S:1:pos:R:3:forces:R:3 energy=7.3481943575788 pbc="F F F"
Pd       0.00000000       0.00000000       0.00000000       0.00000000       0.00000000     -35.33649063
Pd       0.00000000       0.00000000       1.59090909       0.00000000       0.00000000      35.33649063
2
Properties=species:S:1:pos:R:3:forces:R:3 energy=5.33617860081162 pbc="F F F"
Pd       0.00000000       0.00000000       0.00000000       0.00000000       0.00000000     -32.95829773
Pd       0.00000000       0.00000000       1.64969697       0.00000000       0.00000000      32.95829773
2
Properties=species:S:1:pos:R:3:forces:R:3 energy=3.489995502640165 pbc="F F F"
Pd       0.00000000       0.00000000       0.00000000       0.00000000       0.00000000     -29.71480942
Pd       0.00000000       0.00000000       1.70848485       0.00000000       0.00000000      29.71480942
2
Properties=species:S:1:pos:R:3:forces:R:3 energy=1.8554762460142091 pbc="F F F"
Pd       0.00000000       0.00000000       0.00000000       0.00000000       0.00000000     -25.82109833
Pd       0.00000000       0.00000000       1.76727273       0.00000000       0.00000000      25.82109833
2
Properties=species:S:1:pos:R:3:forces:R:3 energy=0.4568306877445676 pbc="F F F"
Pd       0.00000000       0.00000000       0.00000000       0.00000000       0.00000000     -21.78016853
Pd       0.00000000       0.00000000       1.82606061       0.00000000       0.00000000      21.78016853
2
Properties=species:S:1:pos:R:3:forces:R:3 energy=-0.7105511247968467 pbc="F F F"
Pd       0.00000000       0.00000000       0.00000000       0.00000000       0.00000000     -17.99369621
Pd       0.00000000       0.00000000       1.88484848       0.00000000       0.00000000      17.99369621
2
Properties=species:S:1:pos:R:3:forces:R:3 energy=-1.6660847656264643 pbc="F F F"
Pd       0.00000000       0.00000000       0.00000000       0.00000000       0.00000000     -14.57566071
Pd       0.00000000       0.00000000       1.94363636       0.00000000       0.00000000      14.57566071
2
Properties=species:S:1:pos:R:3:forces:R:3 energy=-2.4313101808577042 pbc="F F F"
Pd       0.00000000       0.00000000       0.00000000       0.00000000       0.00000000     -11.51625347
Pd       0.00000000       0.00000000       2.00242424       0.00000000       0.00000000      11.51625347
2
Properties=species:S:1:pos:R:3:forces:R:3 energy=-3.0271004093782716 pbc="F F F"
Pd       0.00000000       0.00000000       0.00000000       0.00000000       0.00000000      -8.81440258
Pd       0.00000000       0.00000000       2.06121212       0.00000000       0.00000000       8.81440258
2
Properties=species:S:1:pos:R:3:forces:R:3 energy=-3.4752016393590175 pbc="F F F"
Pd       0.00000000       0.00000000       0.00000000       0.00000000       0.00000000      -6.49690056
Pd       0.00000000       0.00000000       2.12000000       0.00000000       0.00000000       6.49690056
2
Properties=species:S:1:pos:R:3:forces:R:3 energy=-3.798934224953882 pbc="F F F"
Pd       0.00000000       0.00000000       0.00000000       0.00000000       0.00000000      -4.58427048
Pd       0.00000000       0.00000000       2.17878788       0.00000000       0.00000000       4.58427048
2
Properties=species:S:1:pos:R:3:forces:R:3 energy=-4.021966661524212 pbc="F F F"
Pd       0.00000000       0.00000000       0.00000000       0.00000000       0.00000000      -3.06684637
Pd       0.00000000       0.00000000       2.23757576       0.00000000       0.00000000       3.06684637
2
Properties=species:S:1:pos:R:3:forces:R:3 energy=-4.166545095576819 pbc="F F F"
Pd       0.00000000       0.00000000       0.00000000       0.00000000       0.00000000      -1.90752459
Pd       0.00000000       0.00000000       2.29636364       0.00000000       0.00000000       1.90752459
2
Properties=species:S:1:pos:R:3:forces:R:3 energy=-4.252275627426141 pbc="F F F"
Pd       0.00000000       0.00000000       0.00000000       0.00000000       0.00000000      -1.05590129
Pd       0.00000000       0.00000000       2.35515152       0.00000000       0.00000000       1.05590129
2
Properties=species:S:1:pos:R:3:forces:R:3 energy=-4.29567044666805 pbc="F F F"
Pd       0.00000000       0.00000000       0.00000000       0.00000000       0.00000000      -0.45820925
Pd       0.00000000       0.00000000       2.41393939       0.00000000       0.00000000       0.45820925
2
Properties=species:S:1:pos:R:3:forces:R:3 energy=-4.310060999242612 pbc="F F F"
Pd       0.00000000       0.00000000       0.00000000       0.00000000       0.00000000      -0.05994342
Pd       0.00000000       0.00000000       2.47272727       0.00000000       0.00000000       0.05994342
2
Properties=species:S:1:pos:R:3:forces:R:3 energy=-4.305477810005659 pbc="F F F"
Pd       0.00000000       0.00000000       0.00000000       0.00000000       0.00000000       0.19788745
Pd       0.00000000       0.00000000       2.53151515       0.00000000       0.00000000      -0.19788745
2
Properties=species:S:1:pos:R:3:forces:R:3 energy=-4.288223392334565 pbc="F F F"
Pd       0.00000000       0.00000000       0.00000000       0.00000000       0.00000000       0.38249144
Pd       0.00000000       0.00000000       2.59030303       0.00000000       0.00000000      -0.38249144
2
Properties=species:S:1:pos:R:3:forces:R:3 energy=-4.26085860495313 pbc="F F F"
Pd       0.00000000       0.00000000       0.00000000       0.00000000       0.00000000       0.54695851
Pd       0.00000000       0.00000000       2.64909091       0.00000000       0.00000000      -0.54695851
2
Properties=species:S:1:pos:R:3:forces:R:3 energy=-4.22422530723433 pbc="F F F"
Pd       0.00000000       0.00000000       0.00000000       0.00000000       0.00000000       0.69485217
Pd       0.00000000       0.00000000       2.70787879       0.00000000       0.00000000      -0.69485217
2
Properties=species:S:1:pos:R:3:forces:R:3 energy=-4.179827457662888 pbc="F F F"
Pd       0.00000000       0.00000000       0.00000000       0.00000000       0.00000000       0.80960399
Pd       0.00000000       0.00000000       2.76666667       0.00000000       0.00000000      -0.80960399
2
Properties=species:S:1:pos:R:3:forces:R:3 energy=-4.129679788348259 pbc="F F F"
Pd       0.00000000       0.00000000       0.00000000       0.00000000       0.00000000       0.89165151
Pd       0.00000000       0.00000000       2.82545455       0.00000000       0.00000000      -0.89165151
2
Properties=species:S:1:pos:R:3:forces:R:3 energy=-4.075489288747026 pbc="F F F"
Pd       0.00000000       0.00000000       0.00000000       0.00000000       0.00000000       0.94811642
Pd       0.00000000       0.00000000       2.88424242       0.00000000       0.00000000      -0.94811642
2
Properties=species:S:1:pos:R:3:forces:R:3 energy=-4.01862635363353 pbc="F F F"
Pd       0.00000000       0.00000000       0.00000000       0.00000000       0.00000000       0.98297626
Pd       0.00000000       0.00000000       2.94303030       0.00000000       0.00000000      -0.98297626
2
Properties=species:S:1:pos:R:3:forces:R:3 energy=-3.9602982606621184 pbc="F F F"
Pd       0.00000000       0.00000000       0.00000000       0.00000000       0.00000000       0.99828917
Pd       0.00000000       0.00000000       3.00181818       0.00000000       0.00000000      -0.99828917
2
Properties=species:S:1:pos:R:3:forces:R:3 energy=-3.9015899039021344 pbc="F F F"
Pd       0.00000000       0.00000000       0.00000000       0.00000000       0.00000000       0.99640733
Pd       0.00000000       0.00000000       3.06060606       0.00000000       0.00000000      -0.99640733
2
Properties=species:S:1:pos:R:3:forces:R:3 energy=-3.843417105497307 pbc="F F F"
Pd       0.00000000       0.00000000       0.00000000       0.00000000       0.00000000       0.98069859
Pd       0.00000000       0.00000000       3.11939394       0.00000000       0.00000000      -0.98069859
2
Properties=species:S:1:pos:R:3:forces:R:3 energy=-3.7864730102693906 pbc="F F F"
Pd       0.00000000       0.00000000       0.00000000       0.00000000       0.00000000       0.95529741
Pd       0.00000000       0.00000000       3.17818182       0.00000000       0.00000000      -0.95529741
2
Properties=species:S:1:pos:R:3:forces:R:3 energy=-3.731206766790823 pbc="F F F"
Pd       0.00000000       0.00000000       0.00000000       0.00000000       0.00000000       0.92427498
Pd       0.00000000       0.00000000       3.23696970       0.00000000       0.00000000      -0.92427498
2
Properties=species:S:1:pos:R:3:forces:R:3 energy=-3.6778498578067063 pbc="F F F"
Pd       0.00000000       0.00000000       0.00000000       0.00000000       0.00000000       0.89070690
Pd       0.00000000       0.00000000       3.29575758       0.00000000       0.00000000      -0.89070690
2
Properties=species:S:1:pos:R:3:forces:R:3 energy=-3.626499783492236 pbc="F F F"
Pd       0.00000000       0.00000000       0.00000000       0.00000000       0.00000000       0.85612732
Pd       0.00000000       0.00000000       3.35454545       0.00000000       0.00000000      -0.85612732
2
Properties=species:S:1:pos:R:3:forces:R:3 energy=-3.5772071729330928 pbc="F F F"
Pd       0.00000000       0.00000000       0.00000000       0.00000000       0.00000000       0.82062769
Pd       0.00000000       0.00000000       3.41333333       0.00000000       0.00000000      -0.82062769
2
Properties=species:S:1:pos:R:3:forces:R:3 energy=-3.530046088263962 pbc="F F F"
Pd       0.00000000       0.00000000       0.00000000       0.00000000       0.00000000       0.78346539
Pd       0.00000000       0.00000000       3.47212121       0.00000000       0.00000000      -0.78346539
2
Properties=species:S:1:pos:R:3:forces:R:3 energy=-3.485139548127783 pbc="F F F"
Pd       0.00000000       0.00000000       0.00000000       0.00000000       0.00000000       0.74384987
Pd       0.00000000       0.00000000       3.53090909       0.00000000       0.00000000      -0.74384987
2
Properties=species:S:1:pos:R:3:forces:R:3 energy=-3.442641623275646 pbc="F F F"
Pd       0.00000000       0.00000000       0.00000000       0.00000000       0.00000000       0.70150596
Pd       0.00000000       0.00000000       3.58969697       0.00000000       0.00000000      -0.70150596
2
Properties=species:S:1:pos:R:3:forces:R:3 energy=-3.4027042203565636 pbc="F F F"
Pd       0.00000000       0.00000000       0.00000000       0.00000000       0.00000000       0.65685898
Pd       0.00000000       0.00000000       3.64848485       0.00000000       0.00000000      -0.65685898
2
Properties=species:S:1:pos:R:3:forces:R:3 energy=-3.3654372620150235 pbc="F F F"
Pd       0.00000000       0.00000000       0.00000000       0.00000000       0.00000000       0.61088181
Pd       0.00000000       0.00000000       3.70727273       0.00000000       0.00000000      -0.61088181
2
Properties=species:S:1:pos:R:3:forces:R:3 energy=-3.3308815135086114 pbc="F F F"
Pd       0.00000000       0.00000000       0.00000000       0.00000000       0.00000000       0.56477982
Pd       0.00000000       0.00000000       3.76606061       0.00000000       0.00000000      -0.56477982
2
Properties=species:S:1:pos:R:3:forces:R:3 energy=-3.299012359391414 pbc="F F F"
Pd       0.00000000       0.00000000       0.00000000       0.00000000       0.00000000       0.51969951
Pd       0.00000000       0.00000000       3.82484848       0.00000000       0.00000000      -0.51969951
2
Properties=species:S:1:pos:R:3:forces:R:3 energy=-3.2697401686454817 pbc="F F F"
Pd       0.00000000       0.00000000       0.00000000       0.00000000       0.00000000       0.47652784
Pd       0.00000000       0.00000000       3.88363636       0.00000000       0.00000000      -0.47652784
2
Properties=species:S:1:pos:R:3:forces:R:3 energy=-3.242934807444968 pbc="F F F"
Pd       0.00000000       0.00000000       0.00000000       0.00000000       0.00000000       0.43585622
Pd       0.00000000       0.00000000       3.94242424       0.00000000       0.00000000      -0.43585622
2
Properties=species:S:1:pos:R:3:forces:R:3 energy=-3.2184386444720263 pbc="F F F"
Pd       0.00000000       0.00000000       0.00000000       0.00000000       0.00000000       0.39802957
Pd       0.00000000       0.00000000       4.00121212       0.00000000       0.00000000      -0.39802957
2
Properties=species:S:1:pos:R:3:forces:R:3 energy=-3.196077136368954 pbc="F F F"
Pd       0.00000000       0.00000000       0.00000000       0.00000000       0.00000000       0.36324286
Pd       0.00000000       0.00000000       4.06000000       0.00000000       0.00000000      -0.36324286
2
Properties=species:S:1:pos:R:3:forces:R:3 energy=-3.1756677902736308 pbc="F F F"
Pd       0.00000000       0.00000000       0.00000000       0.00000000       0.00000000       0.33163437
Pd       0.00000000       0.00000000       4.11878788       0.00000000       0.00000000      -0.33163437
2
Properties=species:S:1:pos:R:3:forces:R:3 energy=-3.1570202588541822 pbc="F F F"
Pd       0.00000000       0.00000000       0.00000000       0.00000000       0.00000000       0.30331215
Pd       0.00000000       0.00000000       4.17757576       0.00000000       0.00000000      -0.30331215
2
Properties=species:S:1:pos:R:3:forces:R:3 energy=-3.1399398508953205 pbc="F F F"
Pd       0.00000000       0.00000000       0.00000000       0.00000000       0.00000000       0.27833611
Pd       0.00000000       0.00000000       4.23636364       0.00000000       0.00000000      -0.27833611
2
Properties=species:S:1:pos:R:3:forces:R:3 energy=-3.124229801442537 pbc="F F F"
Pd       0.00000000       0.00000000       0.00000000       0.00000000       0.00000000       0.25665835
Pd       0.00000000       0.00000000       4.29515152       0.00000000       0.00000000      -0.25665835
2
Properties=species:S:1:pos:R:3:forces:R:3 energy=-3.1097021503577205 pbc="F F F"
Pd       0.00000000       0.00000000       0.00000000       0.00000000       0.00000000       0.23807994
Pd       0.00000000       0.00000000       4.35393939       0.00000000       0.00000000      -0.23807994
2
Properties=species:S:1:pos:R:3:forces:R:3 energy=-3.0961842953262275 pbc="F F F"
Pd       0.00000000       0.00000000       0.00000000       0.00000000       0.00000000       0.22222146
Pd       0.00000000       0.00000000       4.41272727       0.00000000       0.00000000      -0.22222146
2
Properties=species:S:1:pos:R:3:forces:R:3 energy=-3.0835310910157947 pbc="F F F"
Pd       0.00000000       0.00000000       0.00000000       0.00000000       0.00000000       0.20855685
Pd       0.00000000       0.00000000       4.47151515       0.00000000       0.00000000      -0.20855685
2
Properties=species:S:1:pos:R:3:forces:R:3 energy=-3.0716318622497383 pbc="F F F"
Pd       0.00000000       0.00000000       0.00000000       0.00000000       0.00000000       0.19646777
Pd       0.00000000       0.00000000       4.53030303       0.00000000       0.00000000      -0.19646777
2
Properties=species:S:1:pos:R:3:forces:R:3 energy=-3.0604130369467075 pbc="F F F"
Pd       0.00000000       0.00000000       0.00000000       0.00000000       0.00000000       0.18530902
Pd       0.00000000       0.00000000       4.58909091       0.00000000       0.00000000      -0.18530902
2
Properties=species:S:1:pos:R:3:forces:R:3 energy=-3.0498380732607755 pbc="F F F"
Pd       0.00000000       0.00000000       0.00000000       0.00000000       0.00000000       0.17447296
Pd       0.00000000       0.00000000       4.64787879       0.00000000       0.00000000      -0.17447296
2
Properties=species:S:1:pos:R:3:forces:R:3 energy=-3.039903107858396 pbc="F F F"
Pd       0.00000000       0.00000000       0.00000000       0.00000000       0.00000000       0.16343553
Pd       0.00000000       0.00000000       4.70666667       0.00000000       0.00000000      -0.16343553
2
Properties=species:S:1:pos:R:3:forces:R:3 energy=-3.030633488177585 pbc="F F F"
Pd       0.00000000       0.00000000       0.00000000       0.00000000       0.00000000       0.15181161
Pd       0.00000000       0.00000000       4.76545455       0.00000000       0.00000000      -0.15181161
2
Properties=species:S:1:pos:R:3:forces:R:3 energy=-3.022069003147309 pbc="F F F"
Pd       0.00000000       0.00000000       0.00000000       0.00000000       0.00000000       0.13941097
Pd       0.00000000       0.00000000       4.82424242       0.00000000       0.00000000      -0.13941097
2
Properties=species:S:1:pos:R:3:forces:R:3 energy=-3.0142562411216614 pbc="F F F"
Pd       0.00000000       0.00000000       0.00000000       0.00000000       0.00000000       0.12631786
Pd       0.00000000       0.00000000       4.88303030       0.00000000       0.00000000      -0.12631786
2
Properties=species:S:1:pos:R:3:forces:R:3 energy=-3.007223034742391 pbc="F F F"
Pd       0.00000000       0.00000000       0.00000000       0.00000000       0.00000000       0.11294290
Pd       0.00000000       0.00000000       4.94181818       0.00000000       0.00000000      -0.11294290
2
Properties=species:S:1:pos:R:3:forces:R:3 energy=-3.0009678112983944 pbc="F F F"
Pd       0.00000000       0.00000000       0.00000000       0.00000000       0.00000000       0.10000938
Pd       0.00000000       0.00000000       5.00060606       0.00000000       0.00000000      -0.10000938
2
Properties=species:S:1:pos:R:3:forces:R:3 energy=-2.9954389326727116 pbc="F F F"
Pd       0.00000000       0.00000000       0.00000000       0.00000000       0.00000000       0.08836271
Pd       0.00000000       0.00000000       5.05939394       0.00000000       0.00000000      -0.08836271
2
Properties=species:S:1:pos:R:3:forces:R:3 energy=-2.990541587306564 pbc="F F F"
Pd       0.00000000       0.00000000       0.00000000       0.00000000       0.00000000       0.07856560
Pd       0.00000000       0.00000000       5.11818182       0.00000000       0.00000000      -0.07856560
2
Properties=species:S:1:pos:R:3:forces:R:3 energy=-2.9861684297386324 pbc="F F F"
Pd       0.00000000       0.00000000       0.00000000       0.00000000       0.00000000       0.07043480
Pd       0.00000000       0.00000000       5.17696970       0.00000000       0.00000000      -0.07043480
2
Properties=species:S:1:pos:R:3:forces:R:3 energy=-2.9822458765750017 pbc="F F F"
Pd       0.00000000       0.00000000       0.00000000       0.00000000       0.00000000       0.06305406
Pd       0.00000000       0.00000000       5.23575758       0.00000000       0.00000000      -0.06305406
2
Properties=species:S:1:pos:R:3:forces:R:3 energy=-2.978755430280831 pbc="F F F"
Pd       0.00000000       0.00000000       0.00000000       0.00000000       0.00000000       0.05568431
Pd       0.00000000       0.00000000       5.29454545       0.00000000       0.00000000      -0.05568431
2
Properties=species:S:1:pos:R:3:forces:R:3 energy=-2.9756951123913393 pbc="F F F"
Pd       0.00000000       0.00000000       0.00000000       0.00000000       0.00000000       0.04849980
Pd       0.00000000       0.00000000       5.35333333       0.00000000       0.00000000      -0.04849980
2
Properties=species:S:1:pos:R:3:forces:R:3 energy=-2.9730449308317004 pbc="F F F"
Pd       0.00000000       0.00000000       0.00000000       0.00000000       0.00000000       0.04168320
Pd       0.00000000       0.00000000       5.41212121       0.00000000       0.00000000      -0.04168320
2
Properties=species:S:1:pos:R:3:forces:R:3 energy=-2.970801570988255 pbc="F F F"
Pd       0.00000000       0.00000000       0.00000000       0.00000000       0.00000000       0.03448202
Pd       0.00000000       0.00000000       5.47090909       0.00000000       0.00000000      -0.03448202
2
Properties=species:S:1:pos:R:3:forces:R:3 energy=-2.9690158369288953 pbc="F F F"
Pd       0.00000000       0.00000000       0.00000000       0.00000000       0.00000000       0.02603238
Pd       0.00000000       0.00000000       5.52969697       0.00000000       0.00000000      -0.02603238
2
Properties=species:S:1:pos:R:3:forces:R:3 energy=-2.9677626803541854 pbc="F F F"
Pd       0.00000000       0.00000000       0.00000000       0.00000000       0.00000000       0.01652498
Pd       0.00000000       0.00000000       5.58848485       0.00000000       0.00000000      -0.01652498
2
Properties=species:S:1:pos:R:3:forces:R:3 energy=-2.9670604638141573 pbc="F F F"
Pd       0.00000000       0.00000000       0.00000000       0.00000000       0.00000000       0.00769056
Pd       0.00000000       0.00000000       5.64727273       0.00000000       0.00000000      -0.00769056
2
Properties=species:S:1:pos:R:3:forces:R:3 energy=-2.966792961402986 pbc="F F F"
Pd       0.00000000       0.00000000       0.00000000       0.00000000       0.00000000       0.00212669
Pd       0.00000000       0.00000000       5.70606061       0.00000000       0.00000000      -0.00212669
2
Properties=species:S:1:pos:R:3:forces:R:3 energy=-2.9667206467955856 pbc="F F F"
Pd       0.00000000       0.00000000       0.00000000       0.00000000       0.00000000       0.00111997
Pd       0.00000000       0.00000000       5.76484848       0.00000000       0.00000000      -0.00111997
2
Properties=species:S:1:pos:R:3:forces:R:3 energy=-2.966593288589478 pbc="F F F"
Pd       0.00000000       0.00000000       0.00000000       0.00000000       0.00000000       0.00356606
Pd       0.00000000       0.00000000       5.82363636       0.00000000       0.00000000      -0.00356606
2
Properties=species:S:1:pos:R:3:forces:R:3 energy=-2.966278167231282 pbc="F F F"
Pd       0.00000000       0.00000000       0.00000000       0.00000000       0.00000000       0.00711664
Pd       0.00000000       0.00000000       5.88242424       0.00000000       0.00000000      -0.00711664
2
Properties=species:S:1:pos:R:3:forces:R:3 energy=-2.965774929036572 pbc="F F F"
Pd       0.00000000       0.00000000       0.00000000       0.00000000       0.00000000       0.00975733
Pd       0.00000000       0.00000000       5.94121212       0.00000000       0.00000000      -0.00975733
2
Properties=species:S:1:pos:R:3:forces:R:3 energy=-2.965171969053147 pbc="F F F"
Pd       0.00000000       0.00000000       0.00000000       0.00000000       0.00000000       0.01034850
Pd       0.00000000       0.00000000       6.00000000       0.00000000       0.00000000      -0.01034850
