2
Properties=species:S:1:pos:R:3:forces:R:3 energy=20633.15878280362 pbc="F F F"
Pu       0.00000000       0.00000000       0.00000000       0.00000000       0.00000000 -368351.65625000
Pu       0.00000000       0.00000000       0.18000000       0.00000000       0.00000000  368351.65625000
2
Properties=species:S:1:pos:R:3:forces:R:3 energy=7907.535247647372 pbc="F F F"
Pu       0.00000000       0.00000000       0.00000000       0.00000000       0.00000000 -118393.13281250
Pu       0.00000000       0.00000000       0.23878788       0.00000000       0.00000000  118393.13281250
2
Properties=species:S:1:pos:R:3:forces:R:3 energy=3504.3948667879963 pbc="F F F"
Pu       0.00000000       0.00000000       0.00000000       0.00000000       0.00000000  -44706.05859375
Pu       0.00000000       0.00000000       0.29757576       0.00000000       0.00000000   44706.05859375
2
Properties=species:S:1:pos:R:3:forces:R:3 energy=1762.7558287020588 pbc="F F F"
Pu       0.00000000       0.00000000       0.00000000       0.00000000       0.00000000  -18698.77343750
Pu       0.00000000       0.00000000       0.35636364       0.00000000       0.00000000   18698.77343750
2
Properties=species:S:1:pos:R:3:forces:R:3 energy=1008.5928037997152 pbc="F F F"
Pu       0.00000000       0.00000000       0.00000000       0.00000000       0.00000000   -8451.18847656
Pu       0.00000000       0.00000000       0.41515152       0.00000000       0.00000000    8451.18847656
2
Properties=species:S:1:pos:R:3:forces:R:3 energy=657.3320616185508 pbc="F F F"
Pu       0.00000000       0.00000000       0.00000000       0.00000000       0.00000000   -4087.57250977
Pu       0.00000000       0.00000000       0.47393939       0.00000000       0.00000000    4087.57250977
2
Properties=species:S:1:pos:R:3:forces:R:3 energy=482.4364317420739 pbc="F F F"
Pu       0.00000000       0.00000000       0.00000000       0.00000000       0.00000000   -2111.29248047
Pu       0.00000000       0.00000000       0.53272727       0.00000000       0.00000000    2111.29248047
2
Properties=species:S:1:pos:R:3:forces:R:3 energy=389.31033312193273 pbc="F F F"
Pu       0.00000000       0.00000000       0.00000000       0.00000000       0.00000000   -1168.20336914
Pu       0.00000000       0.00000000       0.59151515       0.00000000       0.00000000    1168.20336914
2
Properties=species:S:1:pos:R:3:forces:R:3 energy=336.04537952765844 pbc="F F F"
Pu       0.00000000       0.00000000       0.00000000       0.00000000       0.00000000    -695.76855469
Pu       0.00000000       0.00000000       0.65030303       0.00000000       0.00000000     695.76855469
2
Properties=species:S:1:pos:R:3:forces:R:3 energy=303.2507628601179 pbc="F F F"
Pu       0.00000000       0.00000000       0.00000000       0.00000000       0.00000000    -444.44662476
Pu       0.00000000       0.00000000       0.70909091       0.00000000       0.00000000     444.44662476
2
Properties=species:S:1:pos:R:3:forces:R:3 energy=281.7860412311155 pbc="F F F"
Pu       0.00000000       0.00000000       0.00000000       0.00000000       0.00000000    -297.37255859
Pu       0.00000000       0.00000000       0.76787879       0.00000000       0.00000000     297.37255859
2
Properties=species:S:1:pos:R:3:forces:R:3 energy=267.28823856643265 pbc="F F F"
Pu       0.00000000       0.00000000       0.00000000       0.00000000       0.00000000    -202.55392456
Pu       0.00000000       0.00000000       0.82666667       0.00000000       0.00000000     202.55392456
2
Properties=species:S:1:pos:R:3:forces:R:3 energy=257.21609511311544 pbc="F F F"
Pu       0.00000000       0.00000000       0.00000000       0.00000000       0.00000000    -146.90391541
Pu       0.00000000       0.00000000       0.88545455       0.00000000       0.00000000     146.90391541
2
Properties=species:S:1:pos:R:3:forces:R:3 energy=249.1329501172337 pbc="F F F"
Pu       0.00000000       0.00000000       0.00000000       0.00000000       0.00000000    -136.10450745
Pu       0.00000000       0.00000000       0.94424242       0.00000000       0.00000000     136.10450745
2
Properties=species:S:1:pos:R:3:forces:R:3 energy=240.30085802848242 pbc="F F F"
Pu       0.00000000       0.00000000       0.00000000       0.00000000       0.00000000    -171.30867004
Pu       0.00000000       0.00000000       1.00303030       0.00000000       0.00000000     171.30867004
2
Properties=species:S:1:pos:R:3:forces:R:3 energy=228.33943251332948 pbc="F F F"
Pu       0.00000000       0.00000000       0.00000000       0.00000000       0.00000000    -239.59451294
Pu       0.00000000       0.00000000       1.06181818       0.00000000       0.00000000     239.59451294
2
Properties=species:S:1:pos:R:3:forces:R:3 energy=211.85803333199274 pbc="F F F"
Pu       0.00000000       0.00000000       0.00000000       0.00000000       0.00000000    -321.85189819
Pu       0.00000000       0.00000000       1.12060606       0.00000000       0.00000000     321.85189819
2
Properties=species:S:1:pos:R:3:forces:R:3 energy=190.57319798540072 pbc="F F F"
Pu       0.00000000       0.00000000       0.00000000       0.00000000       0.00000000    -400.38290405
Pu       0.00000000       0.00000000       1.17939394       0.00000000       0.00000000     400.38290405
2
Properties=species:S:1:pos:R:3:forces:R:3 energy=165.1203177215763 pbc="F F F"
Pu       0.00000000       0.00000000       0.00000000       0.00000000       0.00000000    -461.85150146
Pu       0.00000000       0.00000000       1.23818182       0.00000000       0.00000000     461.85150146
2
Properties=species:S:1:pos:R:3:forces:R:3 energy=136.7816801825252 pbc="F F F"
Pu       0.00000000       0.00000000       0.00000000       0.00000000       0.00000000    -497.28674316
Pu       0.00000000       0.00000000       1.29696970       0.00000000       0.00000000     497.28674316
2
Properties=species:S:1:pos:R:3:forces:R:3 energy=107.29426965919097 pbc="F F F"
Pu       0.00000000       0.00000000       0.00000000       0.00000000       0.00000000    -500.07385254
Pu       0.00000000       0.00000000       1.35575758       0.00000000       0.00000000     500.07385254
2
Properties=species:S:1:pos:R:3:forces:R:3 energy=78.66887414711906 pbc="F F F"
Pu       0.00000000       0.00000000       0.00000000       0.00000000       0.00000000    -468.26449585
Pu       0.00000000       0.00000000       1.41454545       0.00000000       0.00000000     468.26449585
2
Properties=species:S:1:pos:R:3:forces:R:3 energy=52.795348128146934 pbc="F F F"
Pu       0.00000000       0.00000000       0.00000000       0.00000000       0.00000000    -408.36968994
Pu       0.00000000       0.00000000       1.47333333       0.00000000       0.00000000     408.36968994
2
Properties=species:S:1:pos:R:3:forces:R:3 energy=30.878434097271665 pbc="F F F"
Pu       0.00000000       0.00000000       0.00000000       0.00000000       0.00000000    -337.07757568
Pu       0.00000000       0.00000000       1.53212121       0.00000000       0.00000000     337.07757568
2
Properties=species:S:1:pos:R:3:forces:R:3 energy=13.144755640334669 pbc="F F F"
Pu       0.00000000       0.00000000       0.00000000       0.00000000       0.00000000    -265.03015137
Pu       0.00000000       0.00000000       1.59090909       0.00000000       0.00000000     265.03015137
2
Properties=species:S:1:pos:R:3:forces:R:3 energy=0.04725856159911619 pbc="F F F"
Pu       0.00000000       0.00000000       0.00000000       0.00000000       0.00000000    -178.66352844
Pu       0.00000000       0.00000000       1.64969697       0.00000000       0.00000000     178.66352844
2
Properties=species:S:1:pos:R:3:forces:R:3 energy=-8.134352987981085 pbc="F F F"
Pu       0.00000000       0.00000000       0.00000000       0.00000000       0.00000000    -105.39049530
Pu       0.00000000       0.00000000       1.70848485       0.00000000       0.00000000     105.39049530
2
Properties=species:S:1:pos:R:3:forces:R:3 energy=-12.964832433109652 pbc="F F F"
Pu       0.00000000       0.00000000       0.00000000       0.00000000       0.00000000     -63.59576416
Pu       0.00000000       0.00000000       1.76727273       0.00000000       0.00000000      63.59576416
2
Properties=species:S:1:pos:R:3:forces:R:3 energy=-16.07600892152477 pbc="F F F"
Pu       0.00000000       0.00000000       0.00000000       0.00000000       0.00000000     -44.60145187
Pu       0.00000000       0.00000000       1.82606061       0.00000000       0.00000000      44.60145187
2
Properties=species:S:1:pos:R:3:forces:R:3 energy=-18.34586257775926 pbc="F F F"
Pu       0.00000000       0.00000000       0.00000000       0.00000000       0.00000000     -32.76470566
Pu       0.00000000       0.00000000       1.88484848       0.00000000       0.00000000      32.76470566
2
Properties=species:S:1:pos:R:3:forces:R:3 energy=-19.841177167458238 pbc="F F F"
Pu       0.00000000       0.00000000       0.00000000       0.00000000       0.00000000     -16.99932480
Pu       0.00000000       0.00000000       1.94363636       0.00000000       0.00000000      16.99932480
2
Properties=species:S:1:pos:R:3:forces:R:3 energy=-20.31272501476253 pbc="F F F"
Pu       0.00000000       0.00000000       0.00000000       0.00000000       0.00000000      -0.02950169
Pu       0.00000000       0.00000000       2.00242424       0.00000000       0.00000000       0.02950169
2
Properties=species:S:1:pos:R:3:forces:R:3 energy=-20.054354018007697 pbc="F F F"
Pu       0.00000000       0.00000000       0.00000000       0.00000000       0.00000000       6.86502647
Pu       0.00000000       0.00000000       2.06121212       0.00000000       0.00000000      -6.86502647
2
Properties=species:S:1:pos:R:3:forces:R:3 energy=-19.68377789634013 pbc="F F F"
Pu       0.00000000       0.00000000       0.00000000       0.00000000       0.00000000       4.78005314
Pu       0.00000000       0.00000000       2.12000000       0.00000000       0.00000000      -4.78005314
2
Properties=species:S:1:pos:R:3:forces:R:3 energy=-19.548111060692637 pbc="F F F"
Pu       0.00000000       0.00000000       0.00000000       0.00000000       0.00000000      -0.25566271
Pu       0.00000000       0.00000000       2.17878788       0.00000000       0.00000000       0.25566271
2
Properties=species:S:1:pos:R:3:forces:R:3 energy=-19.69745173384971 pbc="F F F"
Pu       0.00000000       0.00000000       0.00000000       0.00000000       0.00000000      -4.54024601
Pu       0.00000000       0.00000000       2.23757576       0.00000000       0.00000000       4.54024601
2
Properties=species:S:1:pos:R:3:forces:R:3 energy=-20.042835263461743 pbc="F F F"
Pu       0.00000000       0.00000000       0.00000000       0.00000000       0.00000000      -6.87539911
Pu       0.00000000       0.00000000       2.29636364       0.00000000       0.00000000       6.87539911
2
Properties=species:S:1:pos:R:3:forces:R:3 energy=-20.47103182191409 pbc="F F F"
Pu       0.00000000       0.00000000       0.00000000       0.00000000       0.00000000      -7.44412518
Pu       0.00000000       0.00000000       2.35515152       0.00000000       0.00000000       7.44412518
2
Properties=species:S:1:pos:R:3:forces:R:3 energy=-20.894442488170327 pbc="F F F"
Pu       0.00000000       0.00000000       0.00000000       0.00000000       0.00000000      -6.80416298
Pu       0.00000000       0.00000000       2.41393939       0.00000000       0.00000000       6.80416298
2
Properties=species:S:1:pos:R:3:forces:R:3 energy=-21.258048130658477 pbc="F F F"
Pu       0.00000000       0.00000000       0.00000000       0.00000000       0.00000000      -5.50293732
Pu       0.00000000       0.00000000       2.47272727       0.00000000       0.00000000       5.50293732
2
Properties=species:S:1:pos:R:3:forces:R:3 energy=-21.539235433064174 pbc="F F F"
Pu       0.00000000       0.00000000       0.00000000       0.00000000       0.00000000      -4.08141661
Pu       0.00000000       0.00000000       2.53151515       0.00000000       0.00000000       4.08141661
2
Properties=species:S:1:pos:R:3:forces:R:3 energy=-21.74276613860672 pbc="F F F"
Pu       0.00000000       0.00000000       0.00000000       0.00000000       0.00000000      -2.89728737
Pu       0.00000000       0.00000000       2.59030303       0.00000000       0.00000000       2.89728737
2
Properties=species:S:1:pos:R:3:forces:R:3 energy=-21.886462050089374 pbc="F F F"
Pu       0.00000000       0.00000000       0.00000000       0.00000000       0.00000000      -2.04353809
Pu       0.00000000       0.00000000       2.64909091       0.00000000       0.00000000       2.04353809
2
Properties=species:S:1:pos:R:3:forces:R:3 energy=-21.988233779076406 pbc="F F F"
Pu       0.00000000       0.00000000       0.00000000       0.00000000       0.00000000      -1.45404637
Pu       0.00000000       0.00000000       2.70787879       0.00000000       0.00000000       1.45404637
2
Properties=species:S:1:pos:R:3:forces:R:3 energy=-22.06058424864227 pbc="F F F"
Pu       0.00000000       0.00000000       0.00000000       0.00000000       0.00000000      -1.02706122
Pu       0.00000000       0.00000000       2.76666667       0.00000000       0.00000000       1.02706122
2
Properties=species:S:1:pos:R:3:forces:R:3 energy=-22.110693098220434 pbc="F F F"
Pu       0.00000000       0.00000000       0.00000000       0.00000000       0.00000000      -0.68831682
Pu       0.00000000       0.00000000       2.82545455       0.00000000       0.00000000       0.68831682
2
Properties=species:S:1:pos:R:3:forces:R:3 energy=-22.142519601835456 pbc="F F F"
Pu       0.00000000       0.00000000       0.00000000       0.00000000       0.00000000      -0.40175435
Pu       0.00000000       0.00000000       2.88424242       0.00000000       0.00000000       0.40175435
2
Properties=species:S:1:pos:R:3:forces:R:3 energy=-22.158770278623756 pbc="F F F"
Pu       0.00000000       0.00000000       0.00000000       0.00000000       0.00000000      -0.15849124
Pu       0.00000000       0.00000000       2.94303030       0.00000000       0.00000000       0.15849124
2
Properties=species:S:1:pos:R:3:forces:R:3 energy=-22.162098158637562 pbc="F F F"
Pu       0.00000000       0.00000000       0.00000000       0.00000000       0.00000000       0.03652239
Pu       0.00000000       0.00000000       3.00181818       0.00000000       0.00000000      -0.03652239
2
Properties=species:S:1:pos:R:3:forces:R:3 energy=-22.15557791507539 pbc="F F F"
Pu       0.00000000       0.00000000       0.00000000       0.00000000       0.00000000       0.17549837
Pu       0.00000000       0.00000000       3.06060606       0.00000000       0.00000000      -0.17549837
2
Properties=species:S:1:pos:R:3:forces:R:3 energy=-22.142618905209492 pbc="F F F"
Pu       0.00000000       0.00000000       0.00000000       0.00000000       0.00000000       0.25582722
Pu       0.00000000       0.00000000       3.11939394       0.00000000       0.00000000      -0.25582722
2
Properties=species:S:1:pos:R:3:forces:R:3 energy=-22.12653567417928 pbc="F F F"
Pu       0.00000000       0.00000000       0.00000000       0.00000000       0.00000000       0.28344470
Pu       0.00000000       0.00000000       3.17818182       0.00000000       0.00000000      -0.28344470
2
Properties=species:S:1:pos:R:3:forces:R:3 energy=-22.110074019238507 pbc="F F F"
Pu       0.00000000       0.00000000       0.00000000       0.00000000       0.00000000       0.27126482
Pu       0.00000000       0.00000000       3.23696970       0.00000000       0.00000000      -0.27126482
2
Properties=species:S:1:pos:R:3:forces:R:3 energy=-22.095115032975876 pbc="F F F"
Pu       0.00000000       0.00000000       0.00000000       0.00000000       0.00000000       0.23488790
Pu       0.00000000       0.00000000       3.29575758       0.00000000       0.00000000      -0.23488790
2
Properties=species:S:1:pos:R:3:forces:R:3 energy=-22.08265635198746 pbc="F F F"
Pu       0.00000000       0.00000000       0.00000000       0.00000000       0.00000000       0.18817106
Pu       0.00000000       0.00000000       3.35454545       0.00000000       0.00000000      -0.18817106
2
Properties=species:S:1:pos:R:3:forces:R:3 energy=-22.073010850268325 pbc="F F F"
Pu       0.00000000       0.00000000       0.00000000       0.00000000       0.00000000       0.14018427
Pu       0.00000000       0.00000000       3.41333333       0.00000000       0.00000000      -0.14018427
2
Properties=species:S:1:pos:R:3:forces:R:3 energy=-22.066126606543666 pbc="F F F"
Pu       0.00000000       0.00000000       0.00000000       0.00000000       0.00000000       0.09451865
Pu       0.00000000       0.00000000       3.47212121       0.00000000       0.00000000      -0.09451865
2
Properties=species:S:1:pos:R:3:forces:R:3 energy=-22.06184821172924 pbc="F F F"
Pu       0.00000000       0.00000000       0.00000000       0.00000000       0.00000000       0.05146040
Pu       0.00000000       0.00000000       3.53090909       0.00000000       0.00000000      -0.05146040
2
Properties=species:S:1:pos:R:3:forces:R:3 energy=-22.060003737972988 pbc="F F F"
Pu       0.00000000       0.00000000       0.00000000       0.00000000       0.00000000       0.01219694
Pu       0.00000000       0.00000000       3.58969697       0.00000000       0.00000000      -0.01219694
2
Properties=species:S:1:pos:R:3:forces:R:3 energy=-22.060235955492477 pbc="F F F"
Pu       0.00000000       0.00000000       0.00000000       0.00000000       0.00000000      -0.01789394
Pu       0.00000000       0.00000000       3.64848485       0.00000000       0.00000000       0.01789394
2
Properties=species:S:1:pos:R:3:forces:R:3 energy=-22.06176740543056 pbc="F F F"
Pu       0.00000000       0.00000000       0.00000000       0.00000000       0.00000000      -0.03079545
Pu       0.00000000       0.00000000       3.70727273       0.00000000       0.00000000       0.03079545
2
Properties=species:S:1:pos:R:3:forces:R:3 energy=-22.063438946699335 pbc="F F F"
Pu       0.00000000       0.00000000       0.00000000       0.00000000       0.00000000      -0.02266315
Pu       0.00000000       0.00000000       3.76606061       0.00000000       0.00000000       0.02266315
2
Properties=species:S:1:pos:R:3:forces:R:3 energy=-22.06411069354065 pbc="F F F"
Pu       0.00000000       0.00000000       0.00000000       0.00000000       0.00000000       0.00180951
Pu       0.00000000       0.00000000       3.82484848       0.00000000       0.00000000      -0.00180951
2
Properties=species:S:1:pos:R:3:forces:R:3 energy=-22.063076219141752 pbc="F F F"
Pu       0.00000000       0.00000000       0.00000000       0.00000000       0.00000000       0.03410811
Pu       0.00000000       0.00000000       3.88363636       0.00000000       0.00000000      -0.03410811
2
Properties=species:S:1:pos:R:3:forces:R:3 energy=-22.060054941906046 pbc="F F F"
Pu       0.00000000       0.00000000       0.00000000       0.00000000       0.00000000       0.06884292
Pu       0.00000000       0.00000000       3.94242424       0.00000000       0.00000000      -0.06884292
2
Properties=species:S:1:pos:R:3:forces:R:3 energy=-22.054960790649464 pbc="F F F"
Pu       0.00000000       0.00000000       0.00000000       0.00000000       0.00000000       0.10462105
Pu       0.00000000       0.00000000       4.00121212       0.00000000       0.00000000      -0.10462105
2
Properties=species:S:1:pos:R:3:forces:R:3 energy=-22.0477376211277 pbc="F F F"
Pu       0.00000000       0.00000000       0.00000000       0.00000000       0.00000000       0.14116615
Pu       0.00000000       0.00000000       4.06000000       0.00000000       0.00000000      -0.14116615
2
Properties=species:S:1:pos:R:3:forces:R:3 energy=-22.038369349027672 pbc="F F F"
Pu       0.00000000       0.00000000       0.00000000       0.00000000       0.00000000       0.17741141
Pu       0.00000000       0.00000000       4.11878788       0.00000000       0.00000000      -0.17741141
2
Properties=species:S:1:pos:R:3:forces:R:3 energy=-22.02692341248742 pbc="F F F"
Pu       0.00000000       0.00000000       0.00000000       0.00000000       0.00000000       0.21141855
Pu       0.00000000       0.00000000       4.17757576       0.00000000       0.00000000      -0.21141855
2
Properties=species:S:1:pos:R:3:forces:R:3 energy=-22.013598808951137 pbc="F F F"
Pu       0.00000000       0.00000000       0.00000000       0.00000000       0.00000000       0.24100500
Pu       0.00000000       0.00000000       4.23636364       0.00000000       0.00000000      -0.24100500
2
Properties=species:S:1:pos:R:3:forces:R:3 energy=-21.998710489140116 pbc="F F F"
Pu       0.00000000       0.00000000       0.00000000       0.00000000       0.00000000       0.26430097
Pu       0.00000000       0.00000000       4.29515152       0.00000000       0.00000000      -0.26430097
2
Properties=species:S:1:pos:R:3:forces:R:3 energy=-21.98267182089011 pbc="F F F"
Pu       0.00000000       0.00000000       0.00000000       0.00000000       0.00000000       0.28001621
Pu       0.00000000       0.00000000       4.35393939       0.00000000       0.00000000      -0.28001621
2
Properties=species:S:1:pos:R:3:forces:R:3 energy=-21.965949382033003 pbc="F F F"
Pu       0.00000000       0.00000000       0.00000000       0.00000000       0.00000000       0.28751707
Pu       0.00000000       0.00000000       4.41272727       0.00000000       0.00000000      -0.28751707
2
Properties=species:S:1:pos:R:3:forces:R:3 energy=-21.949027379360114 pbc="F F F"
Pu       0.00000000       0.00000000       0.00000000       0.00000000       0.00000000       0.28685334
Pu       0.00000000       0.00000000       4.47151515       0.00000000       0.00000000      -0.28685334
2
Properties=species:S:1:pos:R:3:forces:R:3 energy=-21.932366935074196 pbc="F F F"
Pu       0.00000000       0.00000000       0.00000000       0.00000000       0.00000000       0.27881998
Pu       0.00000000       0.00000000       4.53030303       0.00000000       0.00000000      -0.27881998
2
Properties=species:S:1:pos:R:3:forces:R:3 energy=-21.91635857413601 pbc="F F F"
Pu       0.00000000       0.00000000       0.00000000       0.00000000       0.00000000       0.26500884
Pu       0.00000000       0.00000000       4.58909091       0.00000000       0.00000000      -0.26500884
2
Properties=species:S:1:pos:R:3:forces:R:3 energy=-21.901276758343702 pbc="F F F"
Pu       0.00000000       0.00000000       0.00000000       0.00000000       0.00000000       0.24775922
Pu       0.00000000       0.00000000       4.64787879       0.00000000       0.00000000      -0.24775922
2
Properties=species:S:1:pos:R:3:forces:R:3 energy=-21.887239939717485 pbc="F F F"
Pu       0.00000000       0.00000000       0.00000000       0.00000000       0.00000000       0.22986884
Pu       0.00000000       0.00000000       4.70666667       0.00000000       0.00000000      -0.22986884
2
Properties=species:S:1:pos:R:3:forces:R:3 energy=-21.874206739466707 pbc="F F F"
Pu       0.00000000       0.00000000       0.00000000       0.00000000       0.00000000       0.21406552
Pu       0.00000000       0.00000000       4.76545455       0.00000000       0.00000000      -0.21406552
2
Properties=species:S:1:pos:R:3:forces:R:3 energy=-21.86199132715618 pbc="F F F"
Pu       0.00000000       0.00000000       0.00000000       0.00000000       0.00000000       0.20230357
Pu       0.00000000       0.00000000       4.82424242       0.00000000       0.00000000      -0.20230357
2
Properties=species:S:1:pos:R:3:forces:R:3 energy=-21.85033015256572 pbc="F F F"
Pu       0.00000000       0.00000000       0.00000000       0.00000000       0.00000000       0.19515032
Pu       0.00000000       0.00000000       4.88303030       0.00000000       0.00000000      -0.19515032
2
Properties=species:S:1:pos:R:3:forces:R:3 energy=-21.83897538043061 pbc="F F F"
Pu       0.00000000       0.00000000       0.00000000       0.00000000       0.00000000       0.19152278
Pu       0.00000000       0.00000000       4.94181818       0.00000000       0.00000000      -0.19152278
2
Properties=species:S:1:pos:R:3:forces:R:3 energy=-21.827786512868034 pbc="F F F"
Pu       0.00000000       0.00000000       0.00000000       0.00000000       0.00000000       0.18918379
Pu       0.00000000       0.00000000       5.00060606       0.00000000       0.00000000      -0.18918379
2
Properties=species:S:1:pos:R:3:forces:R:3 energy=-21.81674378516704 pbc="F F F"
Pu       0.00000000       0.00000000       0.00000000       0.00000000       0.00000000       0.18640436
Pu       0.00000000       0.00000000       5.05939394       0.00000000       0.00000000      -0.18640436
2
Properties=species:S:1:pos:R:3:forces:R:3 energy=-21.805850726281502 pbc="F F F"
Pu       0.00000000       0.00000000       0.00000000       0.00000000       0.00000000       0.18470691
Pu       0.00000000       0.00000000       5.11818182       0.00000000       0.00000000      -0.18470691
2
Properties=species:S:1:pos:R:3:forces:R:3 energy=-21.794882528194762 pbc="F F F"
Pu       0.00000000       0.00000000       0.00000000       0.00000000       0.00000000       0.19046566
Pu       0.00000000       0.00000000       5.17696970       0.00000000       0.00000000      -0.19046566
2
Properties=species:S:1:pos:R:3:forces:R:3 energy=-21.783168430777454 pbc="F F F"
Pu       0.00000000       0.00000000       0.00000000       0.00000000       0.00000000       0.21062437
Pu       0.00000000       0.00000000       5.23575758       0.00000000       0.00000000      -0.21062437
2
Properties=species:S:1:pos:R:3:forces:R:3 energy=-21.769889356873247 pbc="F F F"
Pu       0.00000000       0.00000000       0.00000000       0.00000000       0.00000000       0.24191900
Pu       0.00000000       0.00000000       5.29454545       0.00000000       0.00000000      -0.24191900
2
Properties=species:S:1:pos:R:3:forces:R:3 energy=-21.754840737710364 pbc="F F F"
Pu       0.00000000       0.00000000       0.00000000       0.00000000       0.00000000       0.26736021
Pu       0.00000000       0.00000000       5.35333333       0.00000000       0.00000000      -0.26736021
2
Properties=species:S:1:pos:R:3:forces:R:3 energy=-21.738871089045535 pbc="F F F"
Pu       0.00000000       0.00000000       0.00000000       0.00000000       0.00000000       0.27220085
Pu       0.00000000       0.00000000       5.41212121       0.00000000       0.00000000      -0.27220085
2
Properties=species:S:1:pos:R:3:forces:R:3 energy=-21.72313817053978 pbc="F F F"
Pu       0.00000000       0.00000000       0.00000000       0.00000000       0.00000000       0.26230007
Pu       0.00000000       0.00000000       5.47090909       0.00000000       0.00000000      -0.26230007
2
Properties=species:S:1:pos:R:3:forces:R:3 energy=-21.70784810793487 pbc="F F F"
Pu       0.00000000       0.00000000       0.00000000       0.00000000       0.00000000       0.26166949
Pu       0.00000000       0.00000000       5.52969697       0.00000000       0.00000000      -0.26166949
2
Properties=species:S:1:pos:R:3:forces:R:3 energy=-21.691765179112128 pbc="F F F"
Pu       0.00000000       0.00000000       0.00000000       0.00000000       0.00000000       0.29095745
Pu       0.00000000       0.00000000       5.58848485       0.00000000       0.00000000      -0.29095745
2
Properties=species:S:1:pos:R:3:forces:R:3 energy=-21.6732035086686 pbc="F F F"
Pu       0.00000000       0.00000000       0.00000000       0.00000000       0.00000000       0.34105700
Pu       0.00000000       0.00000000       5.64727273       0.00000000       0.00000000      -0.34105700
2
Properties=species:S:1:pos:R:3:forces:R:3 energy=-21.652092650458655 pbc="F F F"
Pu       0.00000000       0.00000000       0.00000000       0.00000000       0.00000000       0.36978319
Pu       0.00000000       0.00000000       5.70606061       0.00000000       0.00000000      -0.36978319
2
Properties=species:S:1:pos:R:3:forces:R:3 energy=-21.63088924955533 pbc="F F F"
Pu       0.00000000       0.00000000       0.00000000       0.00000000       0.00000000       0.33919424
Pu       0.00000000       0.00000000       5.76484848       0.00000000       0.00000000      -0.33919424
2
Properties=species:S:1:pos:R:3:forces:R:3 energy=-21.6133449077048 pbc="F F F"
Pu       0.00000000       0.00000000       0.00000000       0.00000000       0.00000000       0.25159818
Pu       0.00000000       0.00000000       5.82363636       0.00000000       0.00000000      -0.25159818
2
Properties=species:S:1:pos:R:3:forces:R:3 energy=-21.601723165266147 pbc="F F F"
Pu       0.00000000       0.00000000       0.00000000       0.00000000       0.00000000       0.14522326
Pu       0.00000000       0.00000000       5.88242424       0.00000000       0.00000000      -0.14522326
2
Properties=species:S:1:pos:R:3:forces:R:3 energy=-21.59577717501546 pbc="F F F"
Pu       0.00000000       0.00000000       0.00000000       0.00000000       0.00000000       0.06310496
Pu       0.00000000       0.00000000       5.94121212       0.00000000       0.00000000      -0.06310496
2
Properties=species:S:1:pos:R:3:forces:R:3 energy=-21.593276130368487 pbc="F F F"
Pu       0.00000000       0.00000000       0.00000000       0.00000000       0.00000000       0.03215090
Pu       0.00000000       0.00000000       6.00000000       0.00000000       0.00000000      -0.03215090
