2
Properties=species:S:1:pos:R:3:forces:R:3 energy=5151.482415690453 pbc="F F F"
Se       0.00000000       0.00000000       0.00000000       0.00000000       0.00000000  -80003.89843750
Se       0.00000000       0.00000000       0.18000000       0.00000000       0.00000000   80003.89843750
2
Properties=species:S:1:pos:R:3:forces:R:3 energy=2266.8474059248283 pbc="F F F"
Se       0.00000000       0.00000000       0.00000000       0.00000000       0.00000000  -28513.30468750
Se       0.00000000       0.00000000       0.23878788       0.00000000       0.00000000   28513.30468750
2
Properties=species:S:1:pos:R:3:forces:R:3 energy=1158.478509443621 pbc="F F F"
Se       0.00000000       0.00000000       0.00000000       0.00000000       0.00000000  -11955.23437500
Se       0.00000000       0.00000000       0.29757576       0.00000000       0.00000000   11955.23437500
2
Properties=species:S:1:pos:R:3:forces:R:3 energy=671.509271165539 pbc="F F F"
Se       0.00000000       0.00000000       0.00000000       0.00000000       0.00000000   -5532.17236328
Se       0.00000000       0.00000000       0.35636364       0.00000000       0.00000000    5532.17236328
2
Properties=species:S:1:pos:R:3:forces:R:3 energy=439.86242058910494 pbc="F F F"
Se       0.00000000       0.00000000       0.00000000       0.00000000       0.00000000   -2706.78271484
Se       0.00000000       0.00000000       0.41515152       0.00000000       0.00000000    2706.78271484
2
Properties=species:S:1:pos:R:3:forces:R:3 energy=325.28753047772875 pbc="F F F"
Se       0.00000000       0.00000000       0.00000000       0.00000000       0.00000000   -1346.63854980
Se       0.00000000       0.00000000       0.47393939       0.00000000       0.00000000    1346.63854980
2
Properties=species:S:1:pos:R:3:forces:R:3 energy=268.84246215953544 pbc="F F F"
Se       0.00000000       0.00000000       0.00000000       0.00000000       0.00000000    -647.92236328
Se       0.00000000       0.00000000       0.53272727       0.00000000       0.00000000     647.92236328
2
Properties=species:S:1:pos:R:3:forces:R:3 energy=242.77576606540316 pbc="F F F"
Se       0.00000000       0.00000000       0.00000000       0.00000000       0.00000000    -277.85360718
Se       0.00000000       0.00000000       0.59151515       0.00000000       0.00000000     277.85360718
2
Properties=species:S:1:pos:R:3:forces:R:3 energy=232.6476686484329 pbc="F F F"
Se       0.00000000       0.00000000       0.00000000       0.00000000       0.00000000     -90.71603394
Se       0.00000000       0.00000000       0.65030303       0.00000000       0.00000000      90.71603394
2
Properties=species:S:1:pos:R:3:forces:R:3 energy=229.61985206287346 pbc="F F F"
Se       0.00000000       0.00000000       0.00000000       0.00000000       0.00000000     -31.86143112
Se       0.00000000       0.00000000       0.70909091       0.00000000       0.00000000      31.86143112
2
Properties=species:S:1:pos:R:3:forces:R:3 energy=226.71323613703996 pbc="F F F"
Se       0.00000000       0.00000000       0.00000000       0.00000000       0.00000000     -84.35823822
Se       0.00000000       0.00000000       0.76787879       0.00000000       0.00000000      84.35823822
2
Properties=species:S:1:pos:R:3:forces:R:3 energy=217.96158860597373 pbc="F F F"
Se       0.00000000       0.00000000       0.00000000       0.00000000       0.00000000    -224.58729553
Se       0.00000000       0.00000000       0.82666667       0.00000000       0.00000000     224.58729553
2
Properties=species:S:1:pos:R:3:forces:R:3 energy=199.55282150766465 pbc="F F F"
Se       0.00000000       0.00000000       0.00000000       0.00000000       0.00000000    -402.83859253
Se       0.00000000       0.00000000       0.88545455       0.00000000       0.00000000     402.83859253
2
Properties=species:S:1:pos:R:3:forces:R:3 energy=171.13337349776626 pbc="F F F"
Se       0.00000000       0.00000000       0.00000000       0.00000000       0.00000000    -553.59405518
Se       0.00000000       0.00000000       0.94424242       0.00000000       0.00000000     553.59405518
2
Properties=species:S:1:pos:R:3:forces:R:3 energy=136.3343329091423 pbc="F F F"
Se       0.00000000       0.00000000       0.00000000       0.00000000       0.00000000    -610.01074219
Se       0.00000000       0.00000000       1.00303030       0.00000000       0.00000000     610.01074219
2
Properties=species:S:1:pos:R:3:forces:R:3 energy=101.80857763810894 pbc="F F F"
Se       0.00000000       0.00000000       0.00000000       0.00000000       0.00000000    -548.16210938
Se       0.00000000       0.00000000       1.06181818       0.00000000       0.00000000     548.16210938
2
Properties=species:S:1:pos:R:3:forces:R:3 energy=72.90239075135652 pbc="F F F"
Se       0.00000000       0.00000000       0.00000000       0.00000000       0.00000000    -433.59335327
Se       0.00000000       0.00000000       1.12060606       0.00000000       0.00000000     433.59335327
2
Properties=species:S:1:pos:R:3:forces:R:3 energy=50.62887967540261 pbc="F F F"
Se       0.00000000       0.00000000       0.00000000       0.00000000       0.00000000    -327.25973511
Se       0.00000000       0.00000000       1.17939394       0.00000000       0.00000000     327.25973511
2
Properties=species:S:1:pos:R:3:forces:R:3 energy=34.02827817753104 pbc="F F F"
Se       0.00000000       0.00000000       0.00000000       0.00000000       0.00000000    -240.97222900
Se       0.00000000       0.00000000       1.23818182       0.00000000       0.00000000     240.97222900
2
Properties=species:S:1:pos:R:3:forces:R:3 energy=21.92774441888649 pbc="F F F"
Se       0.00000000       0.00000000       0.00000000       0.00000000       0.00000000    -173.13729858
Se       0.00000000       0.00000000       1.29696970       0.00000000       0.00000000     173.13729858
2
Properties=species:S:1:pos:R:3:forces:R:3 energy=13.45294331637593 pbc="F F F"
Se       0.00000000       0.00000000       0.00000000       0.00000000       0.00000000    -117.00206757
Se       0.00000000       0.00000000       1.35575758       0.00000000       0.00000000     117.00206757
2
Properties=species:S:1:pos:R:3:forces:R:3 energy=7.901472522216339 pbc="F F F"
Se       0.00000000       0.00000000       0.00000000       0.00000000       0.00000000     -74.47265625
Se       0.00000000       0.00000000       1.41454545       0.00000000       0.00000000      74.47265625
2
Properties=species:S:1:pos:R:3:forces:R:3 energy=4.4054777358308534 pbc="F F F"
Se       0.00000000       0.00000000       0.00000000       0.00000000       0.00000000     -46.67303848
Se       0.00000000       0.00000000       1.47333333       0.00000000       0.00000000      46.67303848
2
Properties=species:S:1:pos:R:3:forces:R:3 energy=2.1824928655789355 pbc="F F F"
Se       0.00000000       0.00000000       0.00000000       0.00000000       0.00000000     -30.69890976
Se       0.00000000       0.00000000       1.53212121       0.00000000       0.00000000      30.69890976
2
Properties=species:S:1:pos:R:3:forces:R:3 energy=0.6251094009083362 pbc="F F F"
Se       0.00000000       0.00000000       0.00000000       0.00000000       0.00000000     -23.38709068
Se       0.00000000       0.00000000       1.59090909       0.00000000       0.00000000      23.38709068
2
Properties=species:S:1:pos:R:3:forces:R:3 energy=-0.6534468237414643 pbc="F F F"
Se       0.00000000       0.00000000       0.00000000       0.00000000       0.00000000     -20.51350784
Se       0.00000000       0.00000000       1.64969697       0.00000000       0.00000000      20.51350784
2
Properties=species:S:1:pos:R:3:forces:R:3 energy=-1.8072767613991034 pbc="F F F"
Se       0.00000000       0.00000000       0.00000000       0.00000000       0.00000000     -18.75659370
Se       0.00000000       0.00000000       1.70848485       0.00000000       0.00000000      18.75659370
2
Properties=species:S:1:pos:R:3:forces:R:3 energy=-2.852043676158565 pbc="F F F"
Se       0.00000000       0.00000000       0.00000000       0.00000000       0.00000000     -16.69580841
Se       0.00000000       0.00000000       1.76727273       0.00000000       0.00000000      16.69580841
2
Properties=species:S:1:pos:R:3:forces:R:3 energy=-3.7599481505098904 pbc="F F F"
Se       0.00000000       0.00000000       0.00000000       0.00000000       0.00000000     -14.12092400
Se       0.00000000       0.00000000       1.82606061       0.00000000       0.00000000      14.12092400
2
Properties=species:S:1:pos:R:3:forces:R:3 energy=-4.507120408722347 pbc="F F F"
Se       0.00000000       0.00000000       0.00000000       0.00000000       0.00000000     -11.28166103
Se       0.00000000       0.00000000       1.88484848       0.00000000       0.00000000      11.28166103
2
Properties=species:S:1:pos:R:3:forces:R:3 energy=-5.087321242649135 pbc="F F F"
Se       0.00000000       0.00000000       0.00000000       0.00000000       0.00000000      -8.48506737
Se       0.00000000       0.00000000       1.94363636       0.00000000       0.00000000       8.48506737
2
Properties=species:S:1:pos:R:3:forces:R:3 energy=-5.50963314720044 pbc="F F F"
Se       0.00000000       0.00000000       0.00000000       0.00000000       0.00000000      -5.93288469
Se       0.00000000       0.00000000       2.00242424       0.00000000       0.00000000       5.93288469
2
Properties=species:S:1:pos:R:3:forces:R:3 energy=-5.791266596583672 pbc="F F F"
Se       0.00000000       0.00000000       0.00000000       0.00000000       0.00000000      -3.70405817
Se       0.00000000       0.00000000       2.06121212       0.00000000       0.00000000       3.70405817
2
Properties=species:S:1:pos:R:3:forces:R:3 energy=-5.951546326119666 pbc="F F F"
Se       0.00000000       0.00000000       0.00000000       0.00000000       0.00000000      -1.80149806
Se       0.00000000       0.00000000       2.12000000       0.00000000       0.00000000       1.80149806
2
Properties=species:S:1:pos:R:3:forces:R:3 energy=-6.009053160812956 pbc="F F F"
Se       0.00000000       0.00000000       0.00000000       0.00000000       0.00000000      -0.20412436
Se       0.00000000       0.00000000       2.17878788       0.00000000       0.00000000       0.20412436
2
Properties=species:S:1:pos:R:3:forces:R:3 energy=-5.981222334730872 pbc="F F F"
Se       0.00000000       0.00000000       0.00000000       0.00000000       0.00000000       1.10310745
Se       0.00000000       0.00000000       2.23757576       0.00000000       0.00000000      -1.10310745
2
Properties=species:S:1:pos:R:3:forces:R:3 energy=-5.885004719926145 pbc="F F F"
Se       0.00000000       0.00000000       0.00000000       0.00000000       0.00000000       2.12204289
Se       0.00000000       0.00000000       2.29636364       0.00000000       0.00000000      -2.12204289
2
Properties=species:S:1:pos:R:3:forces:R:3 energy=-5.737316593246872 pbc="F F F"
Se       0.00000000       0.00000000       0.00000000       0.00000000       0.00000000       2.85665727
Se       0.00000000       0.00000000       2.35515152       0.00000000       0.00000000      -2.85665727
2
Properties=species:S:1:pos:R:3:forces:R:3 energy=-5.553983177438033 pbc="F F F"
Se       0.00000000       0.00000000       0.00000000       0.00000000       0.00000000       3.34556413
Se       0.00000000       0.00000000       2.41393939       0.00000000       0.00000000      -3.34556413
2
Properties=species:S:1:pos:R:3:forces:R:3 energy=-5.347061225840746 pbc="F F F"
Se       0.00000000       0.00000000       0.00000000       0.00000000       0.00000000       3.67665434
Se       0.00000000       0.00000000       2.47272727       0.00000000       0.00000000      -3.67665434
2
Properties=species:S:1:pos:R:3:forces:R:3 energy=-5.122776833227592 pbc="F F F"
Se       0.00000000       0.00000000       0.00000000       0.00000000       0.00000000       3.95093203
Se       0.00000000       0.00000000       2.53151515       0.00000000       0.00000000      -3.95093203
2
Properties=species:S:1:pos:R:3:forces:R:3 energy=-4.882495636196786 pbc="F F F"
Se       0.00000000       0.00000000       0.00000000       0.00000000       0.00000000       4.22440290
Se       0.00000000       0.00000000       2.59030303       0.00000000       0.00000000      -4.22440290
2
Properties=species:S:1:pos:R:3:forces:R:3 energy=-4.626311419932732 pbc="F F F"
Se       0.00000000       0.00000000       0.00000000       0.00000000       0.00000000       4.48490858
Se       0.00000000       0.00000000       2.64909091       0.00000000       0.00000000      -4.48490858
2
Properties=species:S:1:pos:R:3:forces:R:3 energy=-4.356590767248993 pbc="F F F"
Se       0.00000000       0.00000000       0.00000000       0.00000000       0.00000000       4.67313910
Se       0.00000000       0.00000000       2.70787879       0.00000000       0.00000000      -4.67313910
2
Properties=species:S:1:pos:R:3:forces:R:3 energy=-4.079643811963425 pbc="F F F"
Se       0.00000000       0.00000000       0.00000000       0.00000000       0.00000000       4.72053146
Se       0.00000000       0.00000000       2.76666667       0.00000000       0.00000000      -4.72053146
2
Properties=species:S:1:pos:R:3:forces:R:3 energy=-3.8051766841207426 pbc="F F F"
Se       0.00000000       0.00000000       0.00000000       0.00000000       0.00000000       4.58562469
Se       0.00000000       0.00000000       2.82545455       0.00000000       0.00000000      -4.58562469
2
Properties=species:S:1:pos:R:3:forces:R:3 energy=-3.5439379518214817 pbc="F F F"
Se       0.00000000       0.00000000       0.00000000       0.00000000       0.00000000       4.27601099
Se       0.00000000       0.00000000       2.88424242       0.00000000       0.00000000      -4.27601099
2
Properties=species:S:1:pos:R:3:forces:R:3 energy=-3.3048436963033683 pbc="F F F"
Se       0.00000000       0.00000000       0.00000000       0.00000000       0.00000000       3.84330273
Se       0.00000000       0.00000000       2.94303030       0.00000000       0.00000000      -3.84330273
2
Properties=species:S:1:pos:R:3:forces:R:3 energy=-3.093118635971891 pbc="F F F"
Se       0.00000000       0.00000000       0.00000000       0.00000000       0.00000000       3.35600948
Se       0.00000000       0.00000000       3.00181818       0.00000000       0.00000000      -3.35600948
2
Properties=species:S:1:pos:R:3:forces:R:3 energy=-2.910179429673262 pbc="F F F"
Se       0.00000000       0.00000000       0.00000000       0.00000000       0.00000000       2.87194300
Se       0.00000000       0.00000000       3.06060606       0.00000000       0.00000000      -2.87194300
2
Properties=species:S:1:pos:R:3:forces:R:3 energy=-2.7546829343265578 pbc="F F F"
Se       0.00000000       0.00000000       0.00000000       0.00000000       0.00000000       2.42625546
Se       0.00000000       0.00000000       3.11939394       0.00000000       0.00000000      -2.42625546
2
Properties=species:S:1:pos:R:3:forces:R:3 energy=-2.623852605842897 pbc="F F F"
Se       0.00000000       0.00000000       0.00000000       0.00000000       0.00000000       2.03413415
Se       0.00000000       0.00000000       3.17818182       0.00000000       0.00000000      -2.03413415
2
Properties=species:S:1:pos:R:3:forces:R:3 energy=-2.5144038673232805 pbc="F F F"
Se       0.00000000       0.00000000       0.00000000       0.00000000       0.00000000       1.69877112
Se       0.00000000       0.00000000       3.23696970       0.00000000       0.00000000      -1.69877112
2
Properties=species:S:1:pos:R:3:forces:R:3 energy=-2.4230496039636193 pbc="F F F"
Se       0.00000000       0.00000000       0.00000000       0.00000000       0.00000000       1.41788530
Se       0.00000000       0.00000000       3.29575758       0.00000000       0.00000000      -1.41788530
2
Properties=species:S:1:pos:R:3:forces:R:3 energy=-2.346711169000965 pbc="F F F"
Se       0.00000000       0.00000000       0.00000000       0.00000000       0.00000000       1.18716550
Se       0.00000000       0.00000000       3.35454545       0.00000000       0.00000000      -1.18716550
2
Properties=species:S:1:pos:R:3:forces:R:3 energy=-2.282583644711838 pbc="F F F"
Se       0.00000000       0.00000000       0.00000000       0.00000000       0.00000000       1.00155389
Se       0.00000000       0.00000000       3.41333333       0.00000000       0.00000000      -1.00155389
2
Properties=species:S:1:pos:R:3:forces:R:3 energy=-2.2281742071326915 pbc="F F F"
Se       0.00000000       0.00000000       0.00000000       0.00000000       0.00000000       0.85566014
Se       0.00000000       0.00000000       3.47212121       0.00000000       0.00000000      -0.85566014
2
Properties=species:S:1:pos:R:3:forces:R:3 energy=-2.181310834337661 pbc="F F F"
Se       0.00000000       0.00000000       0.00000000       0.00000000       0.00000000       0.74388129
Se       0.00000000       0.00000000       3.53090909       0.00000000       0.00000000      -0.74388129
2
Properties=species:S:1:pos:R:3:forces:R:3 energy=-2.140155192881206 pbc="F F F"
Se       0.00000000       0.00000000       0.00000000       0.00000000       0.00000000       0.66049278
Se       0.00000000       0.00000000       3.58969697       0.00000000       0.00000000      -0.66049278
2
Properties=species:S:1:pos:R:3:forces:R:3 energy=-2.1032075812318283 pbc="F F F"
Se       0.00000000       0.00000000       0.00000000       0.00000000       0.00000000       0.59979421
Se       0.00000000       0.00000000       3.64848485       0.00000000       0.00000000      -0.59979421
2
Properties=species:S:1:pos:R:3:forces:R:3 energy=-2.06929811778811 pbc="F F F"
Se       0.00000000       0.00000000       0.00000000       0.00000000       0.00000000       0.55627471
Se       0.00000000       0.00000000       3.70727273       0.00000000       0.00000000      -0.55627471
2
Properties=species:S:1:pos:R:3:forces:R:3 energy=-2.0375664246143375 pbc="F F F"
Se       0.00000000       0.00000000       0.00000000       0.00000000       0.00000000       0.52486777
Se       0.00000000       0.00000000       3.76606061       0.00000000       0.00000000      -0.52486777
2
Properties=species:S:1:pos:R:3:forces:R:3 energy=-2.0074351534747543 pbc="F F F"
Se       0.00000000       0.00000000       0.00000000       0.00000000       0.00000000       0.50119221
Se       0.00000000       0.00000000       3.82484848       0.00000000       0.00000000      -0.50119221
2
Properties=species:S:1:pos:R:3:forces:R:3 energy=-1.9785566850259315 pbc="F F F"
Se       0.00000000       0.00000000       0.00000000       0.00000000       0.00000000       0.48171806
Se       0.00000000       0.00000000       3.88363636       0.00000000       0.00000000      -0.48171806
2
Properties=species:S:1:pos:R:3:forces:R:3 energy=-1.9507657081101115 pbc="F F F"
Se       0.00000000       0.00000000       0.00000000       0.00000000       0.00000000       0.46385121
Se       0.00000000       0.00000000       3.94242424       0.00000000       0.00000000      -0.46385121
2
Properties=species:S:1:pos:R:3:forces:R:3 energy=-1.9240216844339533 pbc="F F F"
Se       0.00000000       0.00000000       0.00000000       0.00000000       0.00000000       0.44589970
Se       0.00000000       0.00000000       4.00121212       0.00000000       0.00000000      -0.44589970
2
Properties=species:S:1:pos:R:3:forces:R:3 energy=-1.8983586238597252 pbc="F F F"
Se       0.00000000       0.00000000       0.00000000       0.00000000       0.00000000       0.42696303
Se       0.00000000       0.00000000       4.06000000       0.00000000       0.00000000      -0.42696303
2
Properties=species:S:1:pos:R:3:forces:R:3 energy=-1.8738459715030023 pbc="F F F"
Se       0.00000000       0.00000000       0.00000000       0.00000000       0.00000000       0.40677309
Se       0.00000000       0.00000000       4.11878788       0.00000000       0.00000000      -0.40677309
2
Properties=species:S:1:pos:R:3:forces:R:3 energy=-1.850553059605715 pbc="F F F"
Se       0.00000000       0.00000000       0.00000000       0.00000000       0.00000000       0.38550696
Se       0.00000000       0.00000000       4.17757576       0.00000000       0.00000000      -0.38550696
2
Properties=species:S:1:pos:R:3:forces:R:3 energy=-1.8285318372762804 pbc="F F F"
Se       0.00000000       0.00000000       0.00000000       0.00000000       0.00000000       0.36360693
Se       0.00000000       0.00000000       4.23636364       0.00000000       0.00000000      -0.36360693
2
Properties=species:S:1:pos:R:3:forces:R:3 energy=-1.8078030406281052 pbc="F F F"
Se       0.00000000       0.00000000       0.00000000       0.00000000       0.00000000       0.34162056
Se       0.00000000       0.00000000       4.29515152       0.00000000       0.00000000      -0.34162056
2
Properties=species:S:1:pos:R:3:forces:R:3 energy=-1.7883570672583466 pbc="F F F"
Se       0.00000000       0.00000000       0.00000000       0.00000000       0.00000000       0.32008359
Se       0.00000000       0.00000000       4.35393939       0.00000000       0.00000000      -0.32008359
2
Properties=species:S:1:pos:R:3:forces:R:3 energy=-1.7701524111039977 pbc="F F F"
Se       0.00000000       0.00000000       0.00000000       0.00000000       0.00000000       0.29942274
Se       0.00000000       0.00000000       4.41272727       0.00000000       0.00000000      -0.29942274
2
Properties=species:S:1:pos:R:3:forces:R:3 energy=-1.7531288740821827 pbc="F F F"
Se       0.00000000       0.00000000       0.00000000       0.00000000       0.00000000       0.27992806
Se       0.00000000       0.00000000       4.47151515       0.00000000       0.00000000      -0.27992806
2
Properties=species:S:1:pos:R:3:forces:R:3 energy=-1.7372131035704534 pbc="F F F"
Se       0.00000000       0.00000000       0.00000000       0.00000000       0.00000000       0.26175180
Se       0.00000000       0.00000000       4.53030303       0.00000000       0.00000000      -0.26175180
2
Properties=species:S:1:pos:R:3:forces:R:3 energy=-1.722326659456661 pbc="F F F"
Se       0.00000000       0.00000000       0.00000000       0.00000000       0.00000000       0.24493521
Se       0.00000000       0.00000000       4.58909091       0.00000000       0.00000000      -0.24493521
2
Properties=species:S:1:pos:R:3:forces:R:3 energy=-1.7083890894058587 pbc="F F F"
Se       0.00000000       0.00000000       0.00000000       0.00000000       0.00000000       0.22945066
Se       0.00000000       0.00000000       4.64787879       0.00000000       0.00000000      -0.22945066
2
Properties=species:S:1:pos:R:3:forces:R:3 energy=-1.695323451293442 pbc="F F F"
Se       0.00000000       0.00000000       0.00000000       0.00000000       0.00000000       0.21525078
Se       0.00000000       0.00000000       4.70666667       0.00000000       0.00000000      -0.21525078
2
Properties=species:S:1:pos:R:3:forces:R:3 energy=-1.6830558914288831 pbc="F F F"
Se       0.00000000       0.00000000       0.00000000       0.00000000       0.00000000       0.20231314
Se       0.00000000       0.00000000       4.76545455       0.00000000       0.00000000      -0.20231314
2
Properties=species:S:1:pos:R:3:forces:R:3 energy=-1.6715112262684575 pbc="F F F"
Se       0.00000000       0.00000000       0.00000000       0.00000000       0.00000000       0.19064909
Se       0.00000000       0.00000000       4.82424242       0.00000000       0.00000000      -0.19064909
2
Properties=species:S:1:pos:R:3:forces:R:3 energy=-1.6606146248085412 pbc="F F F"
Se       0.00000000       0.00000000       0.00000000       0.00000000       0.00000000       0.18032478
Se       0.00000000       0.00000000       4.88303030       0.00000000       0.00000000      -0.18032478
2
Properties=species:S:1:pos:R:3:forces:R:3 energy=-1.6502817379732462 pbc="F F F"
Se       0.00000000       0.00000000       0.00000000       0.00000000       0.00000000       0.17142206
Se       0.00000000       0.00000000       4.94181818       0.00000000       0.00000000      -0.17142206
2
Properties=species:S:1:pos:R:3:forces:R:3 energy=-1.6404296116001214 pbc="F F F"
Se       0.00000000       0.00000000       0.00000000       0.00000000       0.00000000       0.16398866
Se       0.00000000       0.00000000       5.00060606       0.00000000       0.00000000      -0.16398866
2
Properties=species:S:1:pos:R:3:forces:R:3 energy=-1.6309726950968415 pbc="F F F"
Se       0.00000000       0.00000000       0.00000000       0.00000000       0.00000000       0.15794718
Se       0.00000000       0.00000000       5.05939394       0.00000000       0.00000000      -0.15794718
2
Properties=species:S:1:pos:R:3:forces:R:3 energy=-1.6218372594295973 pbc="F F F"
Se       0.00000000       0.00000000       0.00000000       0.00000000       0.00000000       0.15298775
Se       0.00000000       0.00000000       5.11818182       0.00000000       0.00000000      -0.15298775
2
Properties=species:S:1:pos:R:3:forces:R:3 energy=-1.6129756550965064 pbc="F F F"
Se       0.00000000       0.00000000       0.00000000       0.00000000       0.00000000       0.14854145
Se       0.00000000       0.00000000       5.17696970       0.00000000       0.00000000      -0.14854145
2
Properties=species:S:1:pos:R:3:forces:R:3 energy=-1.604375876589221 pbc="F F F"
Se       0.00000000       0.00000000       0.00000000       0.00000000       0.00000000       0.14398013
Se       0.00000000       0.00000000       5.23575758       0.00000000       0.00000000      -0.14398013
2
Properties=species:S:1:pos:R:3:forces:R:3 energy=-1.596056346486543 pbc="F F F"
Se       0.00000000       0.00000000       0.00000000       0.00000000       0.00000000       0.13899705
Se       0.00000000       0.00000000       5.29454545       0.00000000       0.00000000      -0.13899705
2
Properties=species:S:1:pos:R:3:forces:R:3 energy=-1.5880374584883086 pbc="F F F"
Se       0.00000000       0.00000000       0.00000000       0.00000000       0.00000000       0.13377325
Se       0.00000000       0.00000000       5.35333333       0.00000000       0.00000000      -0.13377325
2
Properties=species:S:1:pos:R:3:forces:R:3 energy=-1.580327157447109 pbc="F F F"
Se       0.00000000       0.00000000       0.00000000       0.00000000       0.00000000       0.12850569
Se       0.00000000       0.00000000       5.41212121       0.00000000       0.00000000      -0.12850569
2
Properties=species:S:1:pos:R:3:forces:R:3 energy=-1.57293922471899 pbc="F F F"
Se       0.00000000       0.00000000       0.00000000       0.00000000       0.00000000       0.12264709
Se       0.00000000       0.00000000       5.47090909       0.00000000       0.00000000      -0.12264709
2
Properties=species:S:1:pos:R:3:forces:R:3 energy=-1.5659498978242552 pbc="F F F"
Se       0.00000000       0.00000000       0.00000000       0.00000000       0.00000000       0.11458661
Se       0.00000000       0.00000000       5.52969697       0.00000000       0.00000000      -0.11458661
2
Properties=species:S:1:pos:R:3:forces:R:3 energy=-1.5595477221052543 pbc="F F F"
Se       0.00000000       0.00000000       0.00000000       0.00000000       0.00000000       0.10242229
Se       0.00000000       0.00000000       5.58848485       0.00000000       0.00000000      -0.10242229
2
Properties=species:S:1:pos:R:3:forces:R:3 energy=-1.5540056727796712 pbc="F F F"
Se       0.00000000       0.00000000       0.00000000       0.00000000       0.00000000       0.08532876
Se       0.00000000       0.00000000       5.64727273       0.00000000       0.00000000      -0.08532876
2
Properties=species:S:1:pos:R:3:forces:R:3 energy=-1.5495876889178501 pbc="F F F"
Se       0.00000000       0.00000000       0.00000000       0.00000000       0.00000000       0.06466724
Se       0.00000000       0.00000000       5.70606061       0.00000000       0.00000000      -0.06466724
2
Properties=species:S:1:pos:R:3:forces:R:3 energy=-1.546401108973398 pbc="F F F"
Se       0.00000000       0.00000000       0.00000000       0.00000000       0.00000000       0.04385309
Se       0.00000000       0.00000000       5.76484848       0.00000000       0.00000000      -0.04385309
2
Properties=species:S:1:pos:R:3:forces:R:3 energy=-1.544360322245293 pbc="F F F"
Se       0.00000000       0.00000000       0.00000000       0.00000000       0.00000000       0.02641989
Se       0.00000000       0.00000000       5.82363636       0.00000000       0.00000000      -0.02641989
2
Properties=species:S:1:pos:R:3:forces:R:3 energy=-1.5432016565758357 pbc="F F F"
Se       0.00000000       0.00000000       0.00000000       0.00000000       0.00000000       0.01390795
Se       0.00000000       0.00000000       5.88242424       0.00000000       0.00000000      -0.01390795
2
Properties=species:S:1:pos:R:3:forces:R:3 energy=-1.5426291851709892 pbc="F F F"
Se       0.00000000       0.00000000       0.00000000       0.00000000       0.00000000       0.00630691
Se       0.00000000       0.00000000       5.94121212       0.00000000       0.00000000      -0.00630691
2
Properties=species:S:1:pos:R:3:forces:R:3 energy=-1.5423645552914582 pbc="F F F"
Se       0.00000000       0.00000000       0.00000000       0.00000000       0.00000000       0.00354915
Se       0.00000000       0.00000000       6.00000000       0.00000000       0.00000000      -0.00354915
