2
Properties=species:S:1:pos:R:3:forces:R:3 energy=14556.249976860889 pbc="F F F"
Ta       0.00000000       0.00000000       0.00000000       0.00000000       0.00000000 -254375.28125000
Ta       0.00000000       0.00000000       0.18000000       0.00000000       0.00000000  254375.28125000
2
Properties=species:S:1:pos:R:3:forces:R:3 energy=5665.655738579638 pbc="F F F"
Ta       0.00000000       0.00000000       0.00000000       0.00000000       0.00000000  -84140.20312500
Ta       0.00000000       0.00000000       0.23878788       0.00000000       0.00000000   84140.20312500
2
Properties=species:S:1:pos:R:3:forces:R:3 energy=2496.665260064013 pbc="F F F"
Ta       0.00000000       0.00000000       0.00000000       0.00000000       0.00000000  -32742.68945312
Ta       0.00000000       0.00000000       0.29757576       0.00000000       0.00000000   32742.68945312
2
Properties=species:S:1:pos:R:3:forces:R:3 energy=1204.8738782312435 pbc="F F F"
Ta       0.00000000       0.00000000       0.00000000       0.00000000       0.00000000  -14095.50195312
Ta       0.00000000       0.00000000       0.35636364       0.00000000       0.00000000   14095.50195312
2
Properties=species:S:1:pos:R:3:forces:R:3 energy=630.15628790238 pbc="F F F"
Ta       0.00000000       0.00000000       0.00000000       0.00000000       0.00000000   -6522.79052734
Ta       0.00000000       0.00000000       0.41515152       0.00000000       0.00000000    6522.79052734
2
Properties=species:S:1:pos:R:3:forces:R:3 energy=357.1261975766844 pbc="F F F"
Ta       0.00000000       0.00000000       0.00000000       0.00000000       0.00000000   -3198.02319336
Ta       0.00000000       0.00000000       0.47393939       0.00000000       0.00000000    3198.02319336
2
Properties=species:S:1:pos:R:3:forces:R:3 energy=220.2897260254028 pbc="F F F"
Ta       0.00000000       0.00000000       0.00000000       0.00000000       0.00000000   -1644.73535156
Ta       0.00000000       0.00000000       0.53272727       0.00000000       0.00000000    1644.73535156
2
Properties=species:S:1:pos:R:3:forces:R:3 energy=148.66538217233943 pbc="F F F"
Ta       0.00000000       0.00000000       0.00000000       0.00000000       0.00000000    -877.96173096
Ta       0.00000000       0.00000000       0.59151515       0.00000000       0.00000000     877.96173096
2
Properties=species:S:1:pos:R:3:forces:R:3 energy=109.97635632511141 pbc="F F F"
Ta       0.00000000       0.00000000       0.00000000       0.00000000       0.00000000    -479.86007690
Ta       0.00000000       0.00000000       0.65030303       0.00000000       0.00000000     479.86007690
2
Properties=species:S:1:pos:R:3:forces:R:3 energy=88.72273240705859 pbc="F F F"
Ta       0.00000000       0.00000000       0.00000000       0.00000000       0.00000000    -264.60287476
Ta       0.00000000       0.00000000       0.70909091       0.00000000       0.00000000     264.60287476
2
Properties=species:S:1:pos:R:3:forces:R:3 energy=76.99278252557879 pbc="F F F"
Ta       0.00000000       0.00000000       0.00000000       0.00000000       0.00000000    -146.24722290
Ta       0.00000000       0.00000000       0.76787879       0.00000000       0.00000000     146.24722290
2
Properties=species:S:1:pos:R:3:forces:R:3 energy=70.47165683349208 pbc="F F F"
Ta       0.00000000       0.00000000       0.00000000       0.00000000       0.00000000     -82.37178802
Ta       0.00000000       0.00000000       0.82666667       0.00000000       0.00000000      82.37178802
2
Properties=species:S:1:pos:R:3:forces:R:3 energy=66.69171160884456 pbc="F F F"
Ta       0.00000000       0.00000000       0.00000000       0.00000000       0.00000000     -50.32117081
Ta       0.00000000       0.00000000       0.88545455       0.00000000       0.00000000      50.32117081
2
Properties=species:S:1:pos:R:3:forces:R:3 energy=64.15454140142893 pbc="F F F"
Ta       0.00000000       0.00000000       0.00000000       0.00000000       0.00000000     -38.92425919
Ta       0.00000000       0.00000000       0.94424242       0.00000000       0.00000000      38.92425919
2
Properties=species:S:1:pos:R:3:forces:R:3 energy=61.806992244888534 pbc="F F F"
Ta       0.00000000       0.00000000       0.00000000       0.00000000       0.00000000     -43.28496170
Ta       0.00000000       0.00000000       1.00303030       0.00000000       0.00000000      43.28496170
2
Properties=species:S:1:pos:R:3:forces:R:3 energy=58.824929325234514 pbc="F F F"
Ta       0.00000000       0.00000000       0.00000000       0.00000000       0.00000000     -59.85753250
Ta       0.00000000       0.00000000       1.06181818       0.00000000       0.00000000      59.85753250
2
Properties=species:S:1:pos:R:3:forces:R:3 energy=54.623349784478634 pbc="F F F"
Ta       0.00000000       0.00000000       0.00000000       0.00000000       0.00000000     -83.80402374
Ta       0.00000000       0.00000000       1.12060606       0.00000000       0.00000000      83.80402374
2
Properties=species:S:1:pos:R:3:forces:R:3 energy=48.951261817170945 pbc="F F F"
Ta       0.00000000       0.00000000       0.00000000       0.00000000       0.00000000    -108.81217194
Ta       0.00000000       0.00000000       1.17939394       0.00000000       0.00000000     108.81217194
2
Properties=species:S:1:pos:R:3:forces:R:3 energy=41.92384644006705 pbc="F F F"
Ta       0.00000000       0.00000000       0.00000000       0.00000000       0.00000000    -129.09355164
Ta       0.00000000       0.00000000       1.23818182       0.00000000       0.00000000     129.09355164
2
Properties=species:S:1:pos:R:3:forces:R:3 energy=33.94089159718069 pbc="F F F"
Ta       0.00000000       0.00000000       0.00000000       0.00000000       0.00000000    -140.87638855
Ta       0.00000000       0.00000000       1.29696970       0.00000000       0.00000000     140.87638855
2
Properties=species:S:1:pos:R:3:forces:R:3 energy=25.56171587850964 pbc="F F F"
Ta       0.00000000       0.00000000       0.00000000       0.00000000       0.00000000    -142.42156982
Ta       0.00000000       0.00000000       1.35575758       0.00000000       0.00000000     142.42156982
2
Properties=species:S:1:pos:R:3:forces:R:3 energy=17.404409029649322 pbc="F F F"
Ta       0.00000000       0.00000000       0.00000000       0.00000000       0.00000000    -133.33477783
Ta       0.00000000       0.00000000       1.41454545       0.00000000       0.00000000     133.33477783
2
Properties=species:S:1:pos:R:3:forces:R:3 energy=10.080400318930248 pbc="F F F"
Ta       0.00000000       0.00000000       0.00000000       0.00000000       0.00000000    -114.37380219
Ta       0.00000000       0.00000000       1.47333333       0.00000000       0.00000000     114.37380219
2
Properties=species:S:1:pos:R:3:forces:R:3 energy=4.07774077587185 pbc="F F F"
Ta       0.00000000       0.00000000       0.00000000       0.00000000       0.00000000     -89.36746979
Ta       0.00000000       0.00000000       1.53212121       0.00000000       0.00000000      89.36746979
2
Properties=species:S:1:pos:R:3:forces:R:3 energy=-0.4398069350637198 pbc="F F F"
Ta       0.00000000       0.00000000       0.00000000       0.00000000       0.00000000     -64.92163086
Ta       0.00000000       0.00000000       1.59090909       0.00000000       0.00000000      64.92163086
2
Properties=species:S:1:pos:R:3:forces:R:3 energy=-3.6594745042759502 pbc="F F F"
Ta       0.00000000       0.00000000       0.00000000       0.00000000       0.00000000     -45.65165329
Ta       0.00000000       0.00000000       1.64969697       0.00000000       0.00000000      45.65165329
2
Properties=species:S:1:pos:R:3:forces:R:3 energy=-5.929232519654325 pbc="F F F"
Ta       0.00000000       0.00000000       0.00000000       0.00000000       0.00000000     -32.52471161
Ta       0.00000000       0.00000000       1.70848485       0.00000000       0.00000000      32.52471161
2
Properties=species:S:1:pos:R:3:forces:R:3 energy=-7.5781898238010195 pbc="F F F"
Ta       0.00000000       0.00000000       0.00000000       0.00000000       0.00000000     -24.20496368
Ta       0.00000000       0.00000000       1.76727273       0.00000000       0.00000000      24.20496368
2
Properties=species:S:1:pos:R:3:forces:R:3 energy=-8.829986474472168 pbc="F F F"
Ta       0.00000000       0.00000000       0.00000000       0.00000000       0.00000000     -18.70924568
Ta       0.00000000       0.00000000       1.82606061       0.00000000       0.00000000      18.70924568
2
Properties=species:S:1:pos:R:3:forces:R:3 energy=-9.805448093465042 pbc="F F F"
Ta       0.00000000       0.00000000       0.00000000       0.00000000       0.00000000     -14.64353180
Ta       0.00000000       0.00000000       1.88484848       0.00000000       0.00000000      14.64353180
2
Properties=species:S:1:pos:R:3:forces:R:3 energy=-10.5667941548108 pbc="F F F"
Ta       0.00000000       0.00000000       0.00000000       0.00000000       0.00000000     -11.35867691
Ta       0.00000000       0.00000000       1.94363636       0.00000000       0.00000000      11.35867691
2
Properties=species:S:1:pos:R:3:forces:R:3 energy=-11.150717208141083 pbc="F F F"
Ta       0.00000000       0.00000000       0.00000000       0.00000000       0.00000000      -8.57567596
Ta       0.00000000       0.00000000       2.00242424       0.00000000       0.00000000       8.57567596
2
Properties=species:S:1:pos:R:3:forces:R:3 energy=-11.581952691529233 pbc="F F F"
Ta       0.00000000       0.00000000       0.00000000       0.00000000       0.00000000      -6.14491701
Ta       0.00000000       0.00000000       2.06121212       0.00000000       0.00000000       6.14491701
2
Properties=species:S:1:pos:R:3:forces:R:3 energy=-11.878375481078757 pbc="F F F"
Ta       0.00000000       0.00000000       0.00000000       0.00000000       0.00000000      -3.98043895
Ta       0.00000000       0.00000000       2.12000000       0.00000000       0.00000000       3.98043895
2
Properties=species:S:1:pos:R:3:forces:R:3 energy=-12.054911105699894 pbc="F F F"
Ta       0.00000000       0.00000000       0.00000000       0.00000000       0.00000000      -2.07124472
Ta       0.00000000       0.00000000       2.17878788       0.00000000       0.00000000       2.07124472
2
Properties=species:S:1:pos:R:3:forces:R:3 energy=-12.127769234113014 pbc="F F F"
Ta       0.00000000       0.00000000       0.00000000       0.00000000       0.00000000      -0.45955348
Ta       0.00000000       0.00000000       2.23757576       0.00000000       0.00000000       0.45955348
2
Properties=species:S:1:pos:R:3:forces:R:3 energy=-12.114901888351245 pbc="F F F"
Ta       0.00000000       0.00000000       0.00000000       0.00000000       0.00000000       0.85018188
Ta       0.00000000       0.00000000       2.29636364       0.00000000       0.00000000      -0.85018188
2
Properties=species:S:1:pos:R:3:forces:R:3 energy=-12.032816736200548 pbc="F F F"
Ta       0.00000000       0.00000000       0.00000000       0.00000000       0.00000000       1.90395999
Ta       0.00000000       0.00000000       2.35515152       0.00000000       0.00000000      -1.90395999
2
Properties=species:S:1:pos:R:3:forces:R:3 energy=-11.89525600502151 pbc="F F F"
Ta       0.00000000       0.00000000       0.00000000       0.00000000       0.00000000       2.74157214
Ta       0.00000000       0.00000000       2.41393939       0.00000000       0.00000000      -2.74157214
2
Properties=species:S:1:pos:R:3:forces:R:3 energy=-11.714477396077136 pbc="F F F"
Ta       0.00000000       0.00000000       0.00000000       0.00000000       0.00000000       3.37437129
Ta       0.00000000       0.00000000       2.47272727       0.00000000       0.00000000      -3.37437129
2
Properties=species:S:1:pos:R:3:forces:R:3 energy=-11.502565896577428 pbc="F F F"
Ta       0.00000000       0.00000000       0.00000000       0.00000000       0.00000000       3.80055904
Ta       0.00000000       0.00000000       2.53151515       0.00000000       0.00000000      -3.80055904
2
Properties=species:S:1:pos:R:3:forces:R:3 energy=-11.271577711321548 pbc="F F F"
Ta       0.00000000       0.00000000       0.00000000       0.00000000       0.00000000       4.02569723
Ta       0.00000000       0.00000000       2.59030303       0.00000000       0.00000000      -4.02569723
2
Properties=species:S:1:pos:R:3:forces:R:3 energy=-11.032713258691377 pbc="F F F"
Ta       0.00000000       0.00000000       0.00000000       0.00000000       0.00000000       4.07437468
Ta       0.00000000       0.00000000       2.64909091       0.00000000       0.00000000      -4.07437468
2
Properties=species:S:1:pos:R:3:forces:R:3 energy=-10.7951322725195 pbc="F F F"
Ta       0.00000000       0.00000000       0.00000000       0.00000000       0.00000000       3.99048853
Ta       0.00000000       0.00000000       2.70787879       0.00000000       0.00000000      -3.99048853
2
Properties=species:S:1:pos:R:3:forces:R:3 energy=-10.565082127285494 pbc="F F F"
Ta       0.00000000       0.00000000       0.00000000       0.00000000       0.00000000       3.82705879
Ta       0.00000000       0.00000000       2.76666667       0.00000000       0.00000000      -3.82705879
2
Properties=species:S:1:pos:R:3:forces:R:3 energy=-10.345788972884659 pbc="F F F"
Ta       0.00000000       0.00000000       0.00000000       0.00000000       0.00000000       3.63111281
Ta       0.00000000       0.00000000       2.82545455       0.00000000       0.00000000      -3.63111281
2
Properties=species:S:1:pos:R:3:forces:R:3 energy=-10.138191094498051 pbc="F F F"
Ta       0.00000000       0.00000000       0.00000000       0.00000000       0.00000000       3.43248057
Ta       0.00000000       0.00000000       2.88424242       0.00000000       0.00000000      -3.43248057
2
Properties=species:S:1:pos:R:3:forces:R:3 energy=-9.942034449352983 pbc="F F F"
Ta       0.00000000       0.00000000       0.00000000       0.00000000       0.00000000       3.24266267
Ta       0.00000000       0.00000000       2.94303030       0.00000000       0.00000000      -3.24266267
2
Properties=species:S:1:pos:R:3:forces:R:3 energy=-9.756737369368382 pbc="F F F"
Ta       0.00000000       0.00000000       0.00000000       0.00000000       0.00000000       3.06282425
Ta       0.00000000       0.00000000       3.00181818       0.00000000       0.00000000      -3.06282425
2
Properties=species:S:1:pos:R:3:forces:R:3 energy=-9.581707222994794 pbc="F F F"
Ta       0.00000000       0.00000000       0.00000000       0.00000000       0.00000000       2.89401007
Ta       0.00000000       0.00000000       3.06060606       0.00000000       0.00000000      -2.89401007
2
Properties=species:S:1:pos:R:3:forces:R:3 energy=-9.416154749971524 pbc="F F F"
Ta       0.00000000       0.00000000       0.00000000       0.00000000       0.00000000       2.74139071
Ta       0.00000000       0.00000000       3.11939394       0.00000000       0.00000000      -2.74139071
2
Properties=species:S:1:pos:R:3:forces:R:3 energy=-9.258975593510456 pbc="F F F"
Ta       0.00000000       0.00000000       0.00000000       0.00000000       0.00000000       2.60935545
Ta       0.00000000       0.00000000       3.17818182       0.00000000       0.00000000      -2.60935545
2
Properties=species:S:1:pos:R:3:forces:R:3 energy=-9.109005700172972 pbc="F F F"
Ta       0.00000000       0.00000000       0.00000000       0.00000000       0.00000000       2.49513149
Ta       0.00000000       0.00000000       3.23696970       0.00000000       0.00000000      -2.49513149
2
Properties=species:S:1:pos:R:3:forces:R:3 energy=-8.965429024568381 pbc="F F F"
Ta       0.00000000       0.00000000       0.00000000       0.00000000       0.00000000       2.39008164
Ta       0.00000000       0.00000000       3.29575758       0.00000000       0.00000000      -2.39008164
2
Properties=species:S:1:pos:R:3:forces:R:3 energy=-8.82800435720669 pbc="F F F"
Ta       0.00000000       0.00000000       0.00000000       0.00000000       0.00000000       2.28427768
Ta       0.00000000       0.00000000       3.35454545       0.00000000       0.00000000      -2.28427768
2
Properties=species:S:1:pos:R:3:forces:R:3 energy=-8.69704774516496 pbc="F F F"
Ta       0.00000000       0.00000000       0.00000000       0.00000000       0.00000000       2.16862631
Ta       0.00000000       0.00000000       3.41333333       0.00000000       0.00000000      -2.16862631
2
Properties=species:S:1:pos:R:3:forces:R:3 energy=-8.573347349281805 pbc="F F F"
Ta       0.00000000       0.00000000       0.00000000       0.00000000       0.00000000       2.03680921
Ta       0.00000000       0.00000000       3.47212121       0.00000000       0.00000000      -2.03680921
2
Properties=species:S:1:pos:R:3:forces:R:3 energy=-8.457908017962383 pbc="F F F"
Ta       0.00000000       0.00000000       0.00000000       0.00000000       0.00000000       1.88792920
Ta       0.00000000       0.00000000       3.53090909       0.00000000       0.00000000      -1.88792920
2
Properties=species:S:1:pos:R:3:forces:R:3 energy=-8.351601551415312 pbc="F F F"
Ta       0.00000000       0.00000000       0.00000000       0.00000000       0.00000000       1.72748005
Ta       0.00000000       0.00000000       3.58969697       0.00000000       0.00000000      -1.72748005
2
Properties=species:S:1:pos:R:3:forces:R:3 energy=-8.25482660022501 pbc="F F F"
Ta       0.00000000       0.00000000       0.00000000       0.00000000       0.00000000       1.56559122
Ta       0.00000000       0.00000000       3.64848485       0.00000000       0.00000000      -1.56559122
2
Properties=species:S:1:pos:R:3:forces:R:3 energy=-8.167334302752378 pbc="F F F"
Ta       0.00000000       0.00000000       0.00000000       0.00000000       0.00000000       1.41345501
Ta       0.00000000       0.00000000       3.70727273       0.00000000       0.00000000      -1.41345501
2
Properties=species:S:1:pos:R:3:forces:R:3 energy=-8.088273075510047 pbc="F F F"
Ta       0.00000000       0.00000000       0.00000000       0.00000000       0.00000000       1.27979553
Ta       0.00000000       0.00000000       3.76606061       0.00000000       0.00000000      -1.27979553
2
Properties=species:S:1:pos:R:3:forces:R:3 energy=-8.016414095125905 pbc="F F F"
Ta       0.00000000       0.00000000       0.00000000       0.00000000       0.00000000       1.16876054
Ta       0.00000000       0.00000000       3.82484848       0.00000000       0.00000000      -1.16876054
2
Properties=species:S:1:pos:R:3:forces:R:3 energy=-7.9504249695298395 pbc="F F F"
Ta       0.00000000       0.00000000       0.00000000       0.00000000       0.00000000       1.07956827
Ta       0.00000000       0.00000000       3.88363636       0.00000000       0.00000000      -1.07956827
2
Properties=species:S:1:pos:R:3:forces:R:3 energy=-7.889140205992759 pbc="F F F"
Ta       0.00000000       0.00000000       0.00000000       0.00000000       0.00000000       1.00782073
Ta       0.00000000       0.00000000       3.94242424       0.00000000       0.00000000      -1.00782073
2
Properties=species:S:1:pos:R:3:forces:R:3 energy=-7.831704878495379 pbc="F F F"
Ta       0.00000000       0.00000000       0.00000000       0.00000000       0.00000000       0.94760567
Ta       0.00000000       0.00000000       4.00121212       0.00000000       0.00000000      -0.94760567
2
Properties=species:S:1:pos:R:3:forces:R:3 energy=-7.777606117987599 pbc="F F F"
Ta       0.00000000       0.00000000       0.00000000       0.00000000       0.00000000       0.89352185
Ta       0.00000000       0.00000000       4.06000000       0.00000000       0.00000000      -0.89352185
2
Properties=species:S:1:pos:R:3:forces:R:3 energy=-7.726599692137425 pbc="F F F"
Ta       0.00000000       0.00000000       0.00000000       0.00000000       0.00000000       0.84198862
Ta       0.00000000       0.00000000       4.11878788       0.00000000       0.00000000      -0.84198862
2
Properties=species:S:1:pos:R:3:forces:R:3 energy=-7.678587565887269 pbc="F F F"
Ta       0.00000000       0.00000000       0.00000000       0.00000000       0.00000000       0.79155576
Ta       0.00000000       0.00000000       4.17757576       0.00000000       0.00000000      -0.79155576
2
Properties=species:S:1:pos:R:3:forces:R:3 energy=-7.633505386891543 pbc="F F F"
Ta       0.00000000       0.00000000       0.00000000       0.00000000       0.00000000       0.74247414
Ta       0.00000000       0.00000000       4.23636364       0.00000000       0.00000000      -0.74247414
2
Properties=species:S:1:pos:R:3:forces:R:3 energy=-7.59124089567745 pbc="F F F"
Ta       0.00000000       0.00000000       0.00000000       0.00000000       0.00000000       0.69589770
Ta       0.00000000       0.00000000       4.29515152       0.00000000       0.00000000      -0.69589770
2
Properties=species:S:1:pos:R:3:forces:R:3 energy=-7.551611214859438 pbc="F F F"
Ta       0.00000000       0.00000000       0.00000000       0.00000000       0.00000000       0.65307480
Ta       0.00000000       0.00000000       4.35393939       0.00000000       0.00000000      -0.65307480
2
Properties=species:S:1:pos:R:3:forces:R:3 energy=-7.5143684381365565 pbc="F F F"
Ta       0.00000000       0.00000000       0.00000000       0.00000000       0.00000000       0.61470217
Ta       0.00000000       0.00000000       4.41272727       0.00000000       0.00000000      -0.61470217
2
Properties=species:S:1:pos:R:3:forces:R:3 energy=-7.479252240770977 pbc="F F F"
Ta       0.00000000       0.00000000       0.00000000       0.00000000       0.00000000       0.58061016
Ta       0.00000000       0.00000000       4.47151515       0.00000000       0.00000000      -0.58061016
2
Properties=species:S:1:pos:R:3:forces:R:3 energy=-7.446038472628615 pbc="F F F"
Ta       0.00000000       0.00000000       0.00000000       0.00000000       0.00000000       0.54972780
Ta       0.00000000       0.00000000       4.53030303       0.00000000       0.00000000      -0.54972780
2
Properties=species:S:1:pos:R:3:forces:R:3 energy=-7.414588272406425 pbc="F F F"
Ta       0.00000000       0.00000000       0.00000000       0.00000000       0.00000000       0.52034158
Ta       0.00000000       0.00000000       4.58909091       0.00000000       0.00000000      -0.52034158
2
Properties=species:S:1:pos:R:3:forces:R:3 energy=-7.38486714428655 pbc="F F F"
Ta       0.00000000       0.00000000       0.00000000       0.00000000       0.00000000       0.49060428
Ta       0.00000000       0.00000000       4.64787879       0.00000000       0.00000000      -0.49060428
2
Properties=species:S:1:pos:R:3:forces:R:3 energy=-7.356940218075142 pbc="F F F"
Ta       0.00000000       0.00000000       0.00000000       0.00000000       0.00000000       0.45908543
Ta       0.00000000       0.00000000       4.70666667       0.00000000       0.00000000      -0.45908543
2
Properties=species:S:1:pos:R:3:forces:R:3 energy=-7.330935501062955 pbc="F F F"
Ta       0.00000000       0.00000000       0.00000000       0.00000000       0.00000000       0.42524013
Ta       0.00000000       0.00000000       4.76545455       0.00000000       0.00000000      -0.42524013
2
Properties=species:S:1:pos:R:3:forces:R:3 energy=-7.30697942898126 pbc="F F F"
Ta       0.00000000       0.00000000       0.00000000       0.00000000       0.00000000       0.38951287
Ta       0.00000000       0.00000000       4.82424242       0.00000000       0.00000000      -0.38951287
2
Properties=species:S:1:pos:R:3:forces:R:3 energy=-7.285152561327816 pbc="F F F"
Ta       0.00000000       0.00000000       0.00000000       0.00000000       0.00000000       0.35311142
Ta       0.00000000       0.00000000       4.88303030       0.00000000       0.00000000      -0.35311142
2
Properties=species:S:1:pos:R:3:forces:R:3 energy=-7.265447028818195 pbc="F F F"
Ta       0.00000000       0.00000000       0.00000000       0.00000000       0.00000000       0.31749228
Ta       0.00000000       0.00000000       4.94181818       0.00000000       0.00000000      -0.31749228
2
Properties=species:S:1:pos:R:3:forces:R:3 energy=-7.247780803654485 pbc="F F F"
Ta       0.00000000       0.00000000       0.00000000       0.00000000       0.00000000       0.28394893
Ta       0.00000000       0.00000000       5.00060606       0.00000000       0.00000000      -0.28394893
2
Properties=species:S:1:pos:R:3:forces:R:3 energy=-7.231999117365473 pbc="F F F"
Ta       0.00000000       0.00000000       0.00000000       0.00000000       0.00000000       0.25355846
Ta       0.00000000       0.00000000       5.05939394       0.00000000       0.00000000      -0.25355846
2
Properties=species:S:1:pos:R:3:forces:R:3 energy=-7.2178786192925415 pbc="F F F"
Ta       0.00000000       0.00000000       0.00000000       0.00000000       0.00000000       0.22775862
Ta       0.00000000       0.00000000       5.11818182       0.00000000       0.00000000      -0.22775862
2
Properties=species:S:1:pos:R:3:forces:R:3 energy=-7.20508633374802 pbc="F F F"
Ta       0.00000000       0.00000000       0.00000000       0.00000000       0.00000000       0.20882082
Ta       0.00000000       0.00000000       5.17696970       0.00000000       0.00000000      -0.20882082
2
Properties=species:S:1:pos:R:3:forces:R:3 energy=-7.193158138986619 pbc="F F F"
Ta       0.00000000       0.00000000       0.00000000       0.00000000       0.00000000       0.19837199
Ta       0.00000000       0.00000000       5.23575758       0.00000000       0.00000000      -0.19837199
2
Properties=species:S:1:pos:R:3:forces:R:3 energy=-7.181653672757585 pbc="F F F"
Ta       0.00000000       0.00000000       0.00000000       0.00000000       0.00000000       0.19329368
Ta       0.00000000       0.00000000       5.29454545       0.00000000       0.00000000      -0.19329368
2
Properties=species:S:1:pos:R:3:forces:R:3 energy=-7.170501034884924 pbc="F F F"
Ta       0.00000000       0.00000000       0.00000000       0.00000000       0.00000000       0.18470441
Ta       0.00000000       0.00000000       5.35333333       0.00000000       0.00000000      -0.18470441
2
Properties=species:S:1:pos:R:3:forces:R:3 energy=-7.16014260440315 pbc="F F F"
Ta       0.00000000       0.00000000       0.00000000       0.00000000       0.00000000       0.16593328
Ta       0.00000000       0.00000000       5.41212121       0.00000000       0.00000000      -0.16593328
2
Properties=species:S:1:pos:R:3:forces:R:3 energy=-7.151130678479304 pbc="F F F"
Ta       0.00000000       0.00000000       0.00000000       0.00000000       0.00000000       0.14029606
Ta       0.00000000       0.00000000       5.47090909       0.00000000       0.00000000      -0.14029606
2
Properties=species:S:1:pos:R:3:forces:R:3 energy=-7.1435800095023625 pbc="F F F"
Ta       0.00000000       0.00000000       0.00000000       0.00000000       0.00000000       0.11797750
Ta       0.00000000       0.00000000       5.52969697       0.00000000       0.00000000      -0.11797750
2
Properties=species:S:1:pos:R:3:forces:R:3 energy=-7.137044714572153 pbc="F F F"
Ta       0.00000000       0.00000000       0.00000000       0.00000000       0.00000000       0.10621403
Ta       0.00000000       0.00000000       5.58848485       0.00000000       0.00000000      -0.10621403
2
Properties=species:S:1:pos:R:3:forces:R:3 energy=-7.130946999621915 pbc="F F F"
Ta       0.00000000       0.00000000       0.00000000       0.00000000       0.00000000       0.10152791
Ta       0.00000000       0.00000000       5.64727273       0.00000000       0.00000000      -0.10152791
2
Properties=species:S:1:pos:R:3:forces:R:3 energy=-7.125191246482507 pbc="F F F"
Ta       0.00000000       0.00000000       0.00000000       0.00000000       0.00000000       0.09289037
Ta       0.00000000       0.00000000       5.70606061       0.00000000       0.00000000      -0.09289037
2
Properties=species:S:1:pos:R:3:forces:R:3 energy=-7.120205494547354 pbc="F F F"
Ta       0.00000000       0.00000000       0.00000000       0.00000000       0.00000000       0.07517109
Ta       0.00000000       0.00000000       5.76484848       0.00000000       0.00000000      -0.07517109
2
Properties=species:S:1:pos:R:3:forces:R:3 energy=-7.116430361621779 pbc="F F F"
Ta       0.00000000       0.00000000       0.00000000       0.00000000       0.00000000       0.05339640
Ta       0.00000000       0.00000000       5.82363636       0.00000000       0.00000000      -0.05339640
2
Properties=species:S:1:pos:R:3:forces:R:3 energy=-7.113874978648011 pbc="F F F"
Ta       0.00000000       0.00000000       0.00000000       0.00000000       0.00000000       0.03452071
Ta       0.00000000       0.00000000       5.88242424       0.00000000       0.00000000      -0.03452071
2
Properties=species:S:1:pos:R:3:forces:R:3 energy=-7.112244424019757 pbc="F F F"
Ta       0.00000000       0.00000000       0.00000000       0.00000000       0.00000000       0.02204777
Ta       0.00000000       0.00000000       5.94121212       0.00000000       0.00000000      -0.02204777
2
Properties=species:S:1:pos:R:3:forces:R:3 energy=-7.111130439438546 pbc="F F F"
Ta       0.00000000       0.00000000       0.00000000       0.00000000       0.00000000       0.01725321
Ta       0.00000000       0.00000000       6.00000000       0.00000000       0.00000000      -0.01725321
