2
Properties=species:S:1:pos:R:3:forces:R:3 energy=12424.781183711915 pbc="F F F"
Tb       0.00000000       0.00000000       0.00000000       0.00000000       0.00000000 -214151.06250000
Tb       0.00000000       0.00000000       0.18000000       0.00000000       0.00000000  214151.06250000
2
Properties=species:S:1:pos:R:3:forces:R:3 energy=4902.092707149416 pbc="F F F"
Tb       0.00000000       0.00000000       0.00000000       0.00000000       0.00000000  -71718.53125000
Tb       0.00000000       0.00000000       0.23878788       0.00000000       0.00000000   71718.53125000
2
Properties=species:S:1:pos:R:3:forces:R:3 energy=2186.138117305666 pbc="F F F"
Tb       0.00000000       0.00000000       0.00000000       0.00000000       0.00000000  -28275.75976562
Tb       0.00000000       0.00000000       0.29757576       0.00000000       0.00000000   28275.75976562
2
Properties=species:S:1:pos:R:3:forces:R:3 energy=1064.172296993166 pbc="F F F"
Tb       0.00000000       0.00000000       0.00000000       0.00000000       0.00000000  -12334.52636719
Tb       0.00000000       0.00000000       0.35636364       0.00000000       0.00000000   12334.52636719
2
Properties=species:S:1:pos:R:3:forces:R:3 energy=558.460871211916 pbc="F F F"
Tb       0.00000000       0.00000000       0.00000000       0.00000000       0.00000000   -5779.73632812
Tb       0.00000000       0.00000000       0.41515152       0.00000000       0.00000000    5779.73632812
2
Properties=species:S:1:pos:R:3:forces:R:3 energy=315.2647042197285 pbc="F F F"
Tb       0.00000000       0.00000000       0.00000000       0.00000000       0.00000000   -2867.31152344
Tb       0.00000000       0.00000000       0.47393939       0.00000000       0.00000000    2867.31152344
2
Properties=species:S:1:pos:R:3:forces:R:3 energy=191.910685080032 pbc="F F F"
Tb       0.00000000       0.00000000       0.00000000       0.00000000       0.00000000   -1493.35034180
Tb       0.00000000       0.00000000       0.53272727       0.00000000       0.00000000    1493.35034180
2
Properties=species:S:1:pos:R:3:forces:R:3 energy=126.41143278603866 pbc="F F F"
Tb       0.00000000       0.00000000       0.00000000       0.00000000       0.00000000    -811.13159180
Tb       0.00000000       0.00000000       0.59151515       0.00000000       0.00000000     811.13159180
2
Properties=species:S:1:pos:R:3:forces:R:3 energy=90.23895510188456 pbc="F F F"
Tb       0.00000000       0.00000000       0.00000000       0.00000000       0.00000000    -456.59313965
Tb       0.00000000       0.00000000       0.65030303       0.00000000       0.00000000     456.59313965
2
Properties=species:S:1:pos:R:3:forces:R:3 energy=69.58825935178847 pbc="F F F"
Tb       0.00000000       0.00000000       0.00000000       0.00000000       0.00000000    -264.89300537
Tb       0.00000000       0.00000000       0.70909091       0.00000000       0.00000000     264.89300537
2
Properties=species:S:1:pos:R:3:forces:R:3 energy=57.46203492266522 pbc="F F F"
Tb       0.00000000       0.00000000       0.00000000       0.00000000       0.00000000    -157.66419983
Tb       0.00000000       0.00000000       0.76787879       0.00000000       0.00000000     157.66419983
2
Properties=species:S:1:pos:R:3:forces:R:3 energy=50.182635190223216 pbc="F F F"
Tb       0.00000000       0.00000000       0.00000000       0.00000000       0.00000000     -95.30809784
Tb       0.00000000       0.00000000       0.82666667       0.00000000       0.00000000      95.30809784
2
Properties=species:S:1:pos:R:3:forces:R:3 energy=45.79560002309079 pbc="F F F"
Tb       0.00000000       0.00000000       0.00000000       0.00000000       0.00000000     -56.82327271
Tb       0.00000000       0.00000000       0.88545455       0.00000000       0.00000000      56.82327271
2
Properties=species:S:1:pos:R:3:forces:R:3 energy=43.229113930545275 pbc="F F F"
Tb       0.00000000       0.00000000       0.00000000       0.00000000       0.00000000     -32.47579193
Tb       0.00000000       0.00000000       0.94424242       0.00000000       0.00000000      32.47579193
2
Properties=species:S:1:pos:R:3:forces:R:3 energy=41.761939780654636 pbc="F F F"
Tb       0.00000000       0.00000000       0.00000000       0.00000000       0.00000000     -19.12596893
Tb       0.00000000       0.00000000       1.00303030       0.00000000       0.00000000      19.12596893
2
Properties=species:S:1:pos:R:3:forces:R:3 energy=40.80443600237395 pbc="F F F"
Tb       0.00000000       0.00000000       0.00000000       0.00000000       0.00000000     -14.72857475
Tb       0.00000000       0.00000000       1.06181818       0.00000000       0.00000000      14.72857475
2
Properties=species:S:1:pos:R:3:forces:R:3 energy=39.90496540366455 pbc="F F F"
Tb       0.00000000       0.00000000       0.00000000       0.00000000       0.00000000     -16.74312592
Tb       0.00000000       0.00000000       1.12060606       0.00000000       0.00000000      16.74312592
2
Properties=species:S:1:pos:R:3:forces:R:3 energy=38.75230972280768 pbc="F F F"
Tb       0.00000000       0.00000000       0.00000000       0.00000000       0.00000000     -23.03713799
Tb       0.00000000       0.00000000       1.17939394       0.00000000       0.00000000      23.03713799
2
Properties=species:S:1:pos:R:3:forces:R:3 energy=37.144976726260765 pbc="F F F"
Tb       0.00000000       0.00000000       0.00000000       0.00000000       0.00000000     -31.95931053
Tb       0.00000000       0.00000000       1.23818182       0.00000000       0.00000000      31.95931053
2
Properties=species:S:1:pos:R:3:forces:R:3 energy=34.97142471666208 pbc="F F F"
Tb       0.00000000       0.00000000       0.00000000       0.00000000       0.00000000     -42.06762314
Tb       0.00000000       0.00000000       1.29696970       0.00000000       0.00000000      42.06762314
2
Properties=species:S:1:pos:R:3:forces:R:3 energy=32.20382554081533 pbc="F F F"
Tb       0.00000000       0.00000000       0.00000000       0.00000000       0.00000000     -51.91751099
Tb       0.00000000       0.00000000       1.35575758       0.00000000       0.00000000      51.91751099
2
Properties=species:S:1:pos:R:3:forces:R:3 energy=28.902174938664658 pbc="F F F"
Tb       0.00000000       0.00000000       0.00000000       0.00000000       0.00000000     -59.98211670
Tb       0.00000000       0.00000000       1.41454545       0.00000000       0.00000000      59.98211670
2
Properties=species:S:1:pos:R:3:forces:R:3 energy=25.215597144416893 pbc="F F F"
Tb       0.00000000       0.00000000       0.00000000       0.00000000       0.00000000     -64.77519989
Tb       0.00000000       0.00000000       1.47333333       0.00000000       0.00000000      64.77519989
2
Properties=species:S:1:pos:R:3:forces:R:3 energy=21.376018236469108 pbc="F F F"
Tb       0.00000000       0.00000000       0.00000000       0.00000000       0.00000000     -65.01065063
Tb       0.00000000       0.00000000       1.53212121       0.00000000       0.00000000      65.01065063
2
Properties=species:S:1:pos:R:3:forces:R:3 energy=17.670059397270315 pbc="F F F"
Tb       0.00000000       0.00000000       0.00000000       0.00000000       0.00000000     -60.32551956
Tb       0.00000000       0.00000000       1.59090909       0.00000000       0.00000000      60.32551956
2
Properties=species:S:1:pos:R:3:forces:R:3 energy=14.342353537837113 pbc="F F F"
Tb       0.00000000       0.00000000       0.00000000       0.00000000       0.00000000     -52.68422699
Tb       0.00000000       0.00000000       1.64969697       0.00000000       0.00000000      52.68422699
2
Properties=species:S:1:pos:R:3:forces:R:3 energy=11.467027015802405 pbc="F F F"
Tb       0.00000000       0.00000000       0.00000000       0.00000000       0.00000000     -45.38641739
Tb       0.00000000       0.00000000       1.70848485       0.00000000       0.00000000      45.38641739
2
Properties=species:S:1:pos:R:3:forces:R:3 energy=8.97599437610691 pbc="F F F"
Tb       0.00000000       0.00000000       0.00000000       0.00000000       0.00000000     -39.54729080
Tb       0.00000000       0.00000000       1.76727273       0.00000000       0.00000000      39.54729080
2
Properties=species:S:1:pos:R:3:forces:R:3 energy=6.803949596801348 pbc="F F F"
Tb       0.00000000       0.00000000       0.00000000       0.00000000       0.00000000     -34.42377472
Tb       0.00000000       0.00000000       1.82606061       0.00000000       0.00000000      34.42377472
2
Properties=species:S:1:pos:R:3:forces:R:3 energy=4.918455142621701 pbc="F F F"
Tb       0.00000000       0.00000000       0.00000000       0.00000000       0.00000000     -29.82137871
Tb       0.00000000       0.00000000       1.88484848       0.00000000       0.00000000      29.82137871
2
Properties=species:S:1:pos:R:3:forces:R:3 energy=3.2869477810276027 pbc="F F F"
Tb       0.00000000       0.00000000       0.00000000       0.00000000       0.00000000     -25.74959564
Tb       0.00000000       0.00000000       1.94363636       0.00000000       0.00000000      25.74959564
2
Properties=species:S:1:pos:R:3:forces:R:3 energy=1.8873893563521467 pbc="F F F"
Tb       0.00000000       0.00000000       0.00000000       0.00000000       0.00000000     -21.86327744
Tb       0.00000000       0.00000000       2.00242424       0.00000000       0.00000000      21.86327744
2
Properties=species:S:1:pos:R:3:forces:R:3 energy=0.7182082447521755 pbc="F F F"
Tb       0.00000000       0.00000000       0.00000000       0.00000000       0.00000000     -17.89431763
Tb       0.00000000       0.00000000       2.06121212       0.00000000       0.00000000      17.89431763
2
Properties=species:S:1:pos:R:3:forces:R:3 energy=-0.21571385500157073 pbc="F F F"
Tb       0.00000000       0.00000000       0.00000000       0.00000000       0.00000000     -13.89027309
Tb       0.00000000       0.00000000       2.12000000       0.00000000       0.00000000      13.89027309
2
Properties=species:S:1:pos:R:3:forces:R:3 energy=-0.9194754510272354 pbc="F F F"
Tb       0.00000000       0.00000000       0.00000000       0.00000000       0.00000000     -10.11902428
Tb       0.00000000       0.00000000       2.17878788       0.00000000       0.00000000      10.11902428
2
Properties=species:S:1:pos:R:3:forces:R:3 energy=-1.416561321559404 pbc="F F F"
Tb       0.00000000       0.00000000       0.00000000       0.00000000       0.00000000      -6.90988541
Tb       0.00000000       0.00000000       2.23757576       0.00000000       0.00000000       6.90988541
2
Properties=species:S:1:pos:R:3:forces:R:3 energy=-1.7473925305946336 pbc="F F F"
Tb       0.00000000       0.00000000       0.00000000       0.00000000       0.00000000      -4.48394728
Tb       0.00000000       0.00000000       2.29636364       0.00000000       0.00000000       4.48394728
2
Properties=species:S:1:pos:R:3:forces:R:3 energy=-1.9597526359809176 pbc="F F F"
Tb       0.00000000       0.00000000       0.00000000       0.00000000       0.00000000      -2.86871672
Tb       0.00000000       0.00000000       2.35515152       0.00000000       0.00000000       2.86871672
2
Properties=species:S:1:pos:R:3:forces:R:3 energy=-2.098210334103067 pbc="F F F"
Tb       0.00000000       0.00000000       0.00000000       0.00000000       0.00000000      -1.94164419
Tb       0.00000000       0.00000000       2.41393939       0.00000000       0.00000000       1.94164419
2
Properties=species:S:1:pos:R:3:forces:R:3 energy=-2.1978721144980686 pbc="F F F"
Tb       0.00000000       0.00000000       0.00000000       0.00000000       0.00000000      -1.51608336
Tb       0.00000000       0.00000000       2.47272727       0.00000000       0.00000000       1.51608336
2
Properties=species:S:1:pos:R:3:forces:R:3 energy=-2.2825362228109674 pbc="F F F"
Tb       0.00000000       0.00000000       0.00000000       0.00000000       0.00000000      -1.40118778
Tb       0.00000000       0.00000000       2.53151515       0.00000000       0.00000000       1.40118778
2
Properties=species:S:1:pos:R:3:forces:R:3 energy=-2.3654313195667904 pbc="F F F"
Tb       0.00000000       0.00000000       0.00000000       0.00000000       0.00000000      -1.43127513
Tb       0.00000000       0.00000000       2.59030303       0.00000000       0.00000000       1.43127513
2
Properties=species:S:1:pos:R:3:forces:R:3 energy=-2.4511501665527513 pbc="F F F"
Tb       0.00000000       0.00000000       0.00000000       0.00000000       0.00000000      -1.47977829
Tb       0.00000000       0.00000000       2.64909091       0.00000000       0.00000000       1.47977829
2
Properties=species:S:1:pos:R:3:forces:R:3 energy=-2.5381679432348974 pbc="F F F"
Tb       0.00000000       0.00000000       0.00000000       0.00000000       0.00000000      -1.46599567
Tb       0.00000000       0.00000000       2.70787879       0.00000000       0.00000000       1.46599567
2
Properties=species:S:1:pos:R:3:forces:R:3 energy=-2.621558610650352 pbc="F F F"
Tb       0.00000000       0.00000000       0.00000000       0.00000000       0.00000000      -1.35355580
Tb       0.00000000       0.00000000       2.76666667       0.00000000       0.00000000       1.35355580
2
Properties=species:S:1:pos:R:3:forces:R:3 energy=-2.695319507560747 pbc="F F F"
Tb       0.00000000       0.00000000       0.00000000       0.00000000       0.00000000      -1.14009607
Tb       0.00000000       0.00000000       2.82545455       0.00000000       0.00000000       1.14009607
2
Properties=species:S:1:pos:R:3:forces:R:3 energy=-2.753977987564441 pbc="F F F"
Tb       0.00000000       0.00000000       0.00000000       0.00000000       0.00000000      -0.84388018
Tb       0.00000000       0.00000000       2.88424242       0.00000000       0.00000000       0.84388018
2
Properties=species:S:1:pos:R:3:forces:R:3 energy=-2.793478576965262 pbc="F F F"
Tb       0.00000000       0.00000000       0.00000000       0.00000000       0.00000000      -0.49359244
Tb       0.00000000       0.00000000       2.94303030       0.00000000       0.00000000       0.49359244
2
Properties=species:S:1:pos:R:3:forces:R:3 energy=-2.811606053708814 pbc="F F F"
Tb       0.00000000       0.00000000       0.00000000       0.00000000       0.00000000      -0.12252790
Tb       0.00000000       0.00000000       3.00181818       0.00000000       0.00000000       0.12252790
2
Properties=species:S:1:pos:R:3:forces:R:3 energy=-2.808143029391974 pbc="F F F"
Tb       0.00000000       0.00000000       0.00000000       0.00000000       0.00000000       0.23543516
Tb       0.00000000       0.00000000       3.06060606       0.00000000       0.00000000      -0.23543516
2
Properties=species:S:1:pos:R:3:forces:R:3 energy=-2.7847708178191413 pbc="F F F"
Tb       0.00000000       0.00000000       0.00000000       0.00000000       0.00000000       0.55050218
Tb       0.00000000       0.00000000       3.11939394       0.00000000       0.00000000      -0.55050218
2
Properties=species:S:1:pos:R:3:forces:R:3 energy=-2.744669731422066 pbc="F F F"
Tb       0.00000000       0.00000000       0.00000000       0.00000000       0.00000000       0.80208141
Tb       0.00000000       0.00000000       3.17818182       0.00000000       0.00000000      -0.80208141
2
Properties=species:S:1:pos:R:3:forces:R:3 energy=-2.691874123325417 pbc="F F F"
Tb       0.00000000       0.00000000       0.00000000       0.00000000       0.00000000       0.98219097
Tb       0.00000000       0.00000000       3.23696970       0.00000000       0.00000000      -0.98219097
2
Properties=species:S:1:pos:R:3:forces:R:3 energy=-2.6305077892989868 pbc="F F F"
Tb       0.00000000       0.00000000       0.00000000       0.00000000       0.00000000       1.09524655
Tb       0.00000000       0.00000000       3.29575758       0.00000000       0.00000000      -1.09524655
2
Properties=species:S:1:pos:R:3:forces:R:3 energy=-2.5641649087493645 pbc="F F F"
Tb       0.00000000       0.00000000       0.00000000       0.00000000       0.00000000       1.15397453
Tb       0.00000000       0.00000000       3.35454545       0.00000000       0.00000000      -1.15397453
2
Properties=species:S:1:pos:R:3:forces:R:3 energy=-2.4955946169397834 pbc="F F F"
Tb       0.00000000       0.00000000       0.00000000       0.00000000       0.00000000       1.17353785
Tb       0.00000000       0.00000000       3.41333333       0.00000000       0.00000000      -1.17353785
2
Properties=species:S:1:pos:R:3:forces:R:3 energy=-2.426698131295881 pbc="F F F"
Tb       0.00000000       0.00000000       0.00000000       0.00000000       0.00000000       1.16680455
Tb       0.00000000       0.00000000       3.47212121       0.00000000       0.00000000      -1.16680455
2
Properties=species:S:1:pos:R:3:forces:R:3 energy=-2.3587406675086586 pbc="F F F"
Tb       0.00000000       0.00000000       0.00000000       0.00000000       0.00000000       1.14291227
Tb       0.00000000       0.00000000       3.53090909       0.00000000       0.00000000      -1.14291227
2
Properties=species:S:1:pos:R:3:forces:R:3 energy=-2.292523742475341 pbc="F F F"
Tb       0.00000000       0.00000000       0.00000000       0.00000000       0.00000000       1.10857785
Tb       0.00000000       0.00000000       3.58969697       0.00000000       0.00000000      -1.10857785
2
Properties=species:S:1:pos:R:3:forces:R:3 energy=-2.2284821092907627 pbc="F F F"
Tb       0.00000000       0.00000000       0.00000000       0.00000000       0.00000000       1.06998134
Tb       0.00000000       0.00000000       3.64848485       0.00000000       0.00000000      -1.06998134
2
Properties=species:S:1:pos:R:3:forces:R:3 energy=-2.166680619791976 pbc="F F F"
Tb       0.00000000       0.00000000       0.00000000       0.00000000       0.00000000       1.03340232
Tb       0.00000000       0.00000000       3.70727273       0.00000000       0.00000000      -1.03340232
2
Properties=species:S:1:pos:R:3:forces:R:3 energy=-2.1068291458943267 pbc="F F F"
Tb       0.00000000       0.00000000       0.00000000       0.00000000       0.00000000       1.00438428
Tb       0.00000000       0.00000000       3.76606061       0.00000000       0.00000000      -1.00438428
2
Properties=species:S:1:pos:R:3:forces:R:3 energy=-2.0483754171174873 pbc="F F F"
Tb       0.00000000       0.00000000       0.00000000       0.00000000       0.00000000       0.98616296
Tb       0.00000000       0.00000000       3.82484848       0.00000000       0.00000000      -0.98616296
2
Properties=species:S:1:pos:R:3:forces:R:3 energy=-1.9906710739581073 pbc="F F F"
Tb       0.00000000       0.00000000       0.00000000       0.00000000       0.00000000       0.97849214
Tb       0.00000000       0.00000000       3.88363636       0.00000000       0.00000000      -0.97849214
2
Properties=species:S:1:pos:R:3:forces:R:3 energy=-1.9331888608797316 pbc="F F F"
Tb       0.00000000       0.00000000       0.00000000       0.00000000       0.00000000       0.97786802
Tb       0.00000000       0.00000000       3.94242424       0.00000000       0.00000000      -0.97786802
2
Properties=species:S:1:pos:R:3:forces:R:3 energy=-1.8756633122814033 pbc="F F F"
Tb       0.00000000       0.00000000       0.00000000       0.00000000       0.00000000       0.97902030
Tb       0.00000000       0.00000000       4.00121212       0.00000000       0.00000000      -0.97902030
2
Properties=species:S:1:pos:R:3:forces:R:3 energy=-1.818147308386064 pbc="F F F"
Tb       0.00000000       0.00000000       0.00000000       0.00000000       0.00000000       0.97680295
Tb       0.00000000       0.00000000       4.06000000       0.00000000       0.00000000      -0.97680295
2
Properties=species:S:1:pos:R:3:forces:R:3 energy=-1.7609550551862838 pbc="F F F"
Tb       0.00000000       0.00000000       0.00000000       0.00000000       0.00000000       0.96751928
Tb       0.00000000       0.00000000       4.11878788       0.00000000       0.00000000      -0.96751928
2
Properties=species:S:1:pos:R:3:forces:R:3 energy=-1.7045649173699406 pbc="F F F"
Tb       0.00000000       0.00000000       0.00000000       0.00000000       0.00000000       0.94934618
Tb       0.00000000       0.00000000       4.17757576       0.00000000       0.00000000      -0.94934618
2
Properties=species:S:1:pos:R:3:forces:R:3 energy=-1.6495116721293994 pbc="F F F"
Tb       0.00000000       0.00000000       0.00000000       0.00000000       0.00000000       0.92216879
Tb       0.00000000       0.00000000       4.23636364       0.00000000       0.00000000      -0.92216879
2
Properties=species:S:1:pos:R:3:forces:R:3 energy=-1.5962940712769553 pbc="F F F"
Tb       0.00000000       0.00000000       0.00000000       0.00000000       0.00000000       0.88714314
Tb       0.00000000       0.00000000       4.29515152       0.00000000       0.00000000      -0.88714314
2
Properties=species:S:1:pos:R:3:forces:R:3 energy=-1.545319605330166 pbc="F F F"
Tb       0.00000000       0.00000000       0.00000000       0.00000000       0.00000000       0.84632206
Tb       0.00000000       0.00000000       4.35393939       0.00000000       0.00000000      -0.84632206
2
Properties=species:S:1:pos:R:3:forces:R:3 energy=-1.4968515924262724 pbc="F F F"
Tb       0.00000000       0.00000000       0.00000000       0.00000000       0.00000000       0.80226356
Tb       0.00000000       0.00000000       4.41272727       0.00000000       0.00000000      -0.80226356
2
Properties=species:S:1:pos:R:3:forces:R:3 energy=-1.4510003073175692 pbc="F F F"
Tb       0.00000000       0.00000000       0.00000000       0.00000000       0.00000000       0.75777119
Tb       0.00000000       0.00000000       4.47151515       0.00000000       0.00000000      -0.75777119
2
Properties=species:S:1:pos:R:3:forces:R:3 energy=-1.4077101142717294 pbc="F F F"
Tb       0.00000000       0.00000000       0.00000000       0.00000000       0.00000000       0.71558082
Tb       0.00000000       0.00000000       4.53030303       0.00000000       0.00000000      -0.71558082
2
Properties=species:S:1:pos:R:3:forces:R:3 energy=-1.3667737151657526 pbc="F F F"
Tb       0.00000000       0.00000000       0.00000000       0.00000000       0.00000000       0.67807782
Tb       0.00000000       0.00000000       4.58909091       0.00000000       0.00000000      -0.67807782
2
Properties=species:S:1:pos:R:3:forces:R:3 energy=-1.3278596119720711 pbc="F F F"
Tb       0.00000000       0.00000000       0.00000000       0.00000000       0.00000000       0.64697731
Tb       0.00000000       0.00000000       4.64787879       0.00000000       0.00000000      -0.64697731
2
Properties=species:S:1:pos:R:3:forces:R:3 energy=-1.2905634871302987 pbc="F F F"
Tb       0.00000000       0.00000000       0.00000000       0.00000000       0.00000000       0.62301064
Tb       0.00000000       0.00000000       4.70666667       0.00000000       0.00000000      -0.62301064
2
Properties=species:S:1:pos:R:3:forces:R:3 energy=-1.254477507326017 pbc="F F F"
Tb       0.00000000       0.00000000       0.00000000       0.00000000       0.00000000       0.60566610
Tb       0.00000000       0.00000000       4.76545455       0.00000000       0.00000000      -0.60566610
2
Properties=species:S:1:pos:R:3:forces:R:3 energy=-1.2192574458243903 pbc="F F F"
Tb       0.00000000       0.00000000       0.00000000       0.00000000       0.00000000       0.59308290
Tb       0.00000000       0.00000000       4.82424242       0.00000000       0.00000000      -0.59308290
2
Properties=species:S:1:pos:R:3:forces:R:3 energy=-1.1847143100643185 pbc="F F F"
Tb       0.00000000       0.00000000       0.00000000       0.00000000       0.00000000       0.58214897
Tb       0.00000000       0.00000000       4.88303030       0.00000000       0.00000000      -0.58214897
2
Properties=species:S:1:pos:R:3:forces:R:3 energy=-1.1508557199532008 pbc="F F F"
Tb       0.00000000       0.00000000       0.00000000       0.00000000       0.00000000       0.56895566
Tb       0.00000000       0.00000000       4.94181818       0.00000000       0.00000000      -0.56895566
2
Properties=species:S:1:pos:R:3:forces:R:3 energy=-1.1179322739449262 pbc="F F F"
Tb       0.00000000       0.00000000       0.00000000       0.00000000       0.00000000       0.54988229
Tb       0.00000000       0.00000000       5.00060606       0.00000000       0.00000000      -0.54988229
2
Properties=species:S:1:pos:R:3:forces:R:3 energy=-1.0863412291018688 pbc="F F F"
Tb       0.00000000       0.00000000       0.00000000       0.00000000       0.00000000       0.52386445
Tb       0.00000000       0.00000000       5.05939394       0.00000000       0.00000000      -0.52386445
2
Properties=species:S:1:pos:R:3:forces:R:3 energy=-1.05638833126975 pbc="F F F"
Tb       0.00000000       0.00000000       0.00000000       0.00000000       0.00000000       0.49554366
Tb       0.00000000       0.00000000       5.11818182       0.00000000       0.00000000      -0.49554366
2
Properties=species:S:1:pos:R:3:forces:R:3 energy=-1.0279027955829174 pbc="F F F"
Tb       0.00000000       0.00000000       0.00000000       0.00000000       0.00000000       0.47624174
Tb       0.00000000       0.00000000       5.17696970       0.00000000       0.00000000      -0.47624174
2
Properties=species:S:1:pos:R:3:forces:R:3 energy=-1.0000052264004187 pbc="F F F"
Tb       0.00000000       0.00000000       0.00000000       0.00000000       0.00000000       0.47637132
Tb       0.00000000       0.00000000       5.23575758       0.00000000       0.00000000      -0.47637132
2
Properties=species:S:1:pos:R:3:forces:R:3 energy=-0.971606835300369 pbc="F F F"
Tb       0.00000000       0.00000000       0.00000000       0.00000000       0.00000000       0.49045011
Tb       0.00000000       0.00000000       5.29454545       0.00000000       0.00000000      -0.49045011
2
Properties=species:S:1:pos:R:3:forces:R:3 energy=-0.9425462945569347 pbc="F F F"
Tb       0.00000000       0.00000000       0.00000000       0.00000000       0.00000000       0.49408931
Tb       0.00000000       0.00000000       5.35333333       0.00000000       0.00000000      -0.49408931
2
Properties=species:S:1:pos:R:3:forces:R:3 energy=-0.9141157976476798 pbc="F F F"
Tb       0.00000000       0.00000000       0.00000000       0.00000000       0.00000000       0.46805680
Tb       0.00000000       0.00000000       5.41212121       0.00000000       0.00000000      -0.46805680
2
Properties=species:S:1:pos:R:3:forces:R:3 energy=-0.8878535883597047 pbc="F F F"
Tb       0.00000000       0.00000000       0.00000000       0.00000000       0.00000000       0.42582697
Tb       0.00000000       0.00000000       5.47090909       0.00000000       0.00000000      -0.42582697
2
Properties=species:S:1:pos:R:3:forces:R:3 energy=-0.8635047375882161 pbc="F F F"
Tb       0.00000000       0.00000000       0.00000000       0.00000000       0.00000000       0.41131693
Tb       0.00000000       0.00000000       5.52969697       0.00000000       0.00000000      -0.41131693
2
Properties=species:S:1:pos:R:3:forces:R:3 energy=-0.8381195585599035 pbc="F F F"
Tb       0.00000000       0.00000000       0.00000000       0.00000000       0.00000000       0.46503076
Tb       0.00000000       0.00000000       5.58848485       0.00000000       0.00000000      -0.46503076
2
Properties=species:S:1:pos:R:3:forces:R:3 energy=-0.8076467995580261 pbc="F F F"
Tb       0.00000000       0.00000000       0.00000000       0.00000000       0.00000000       0.57646000
Tb       0.00000000       0.00000000       5.64727273       0.00000000       0.00000000      -0.57646000
2
Properties=species:S:1:pos:R:3:forces:R:3 energy=-0.7707563157870907 pbc="F F F"
Tb       0.00000000       0.00000000       0.00000000       0.00000000       0.00000000       0.66681439
Tb       0.00000000       0.00000000       5.70606061       0.00000000       0.00000000      -0.66681439
2
Properties=species:S:1:pos:R:3:forces:R:3 energy=-0.7314335314311448 pbc="F F F"
Tb       0.00000000       0.00000000       0.00000000       0.00000000       0.00000000       0.64479637
Tb       0.00000000       0.00000000       5.76484848       0.00000000       0.00000000      -0.64479637
2
Properties=species:S:1:pos:R:3:forces:R:3 energy=-0.6975863598960859 pbc="F F F"
Tb       0.00000000       0.00000000       0.00000000       0.00000000       0.00000000       0.49014664
Tb       0.00000000       0.00000000       5.82363636       0.00000000       0.00000000      -0.49014664
2
Properties=species:S:1:pos:R:3:forces:R:3 energy=-0.6751138303985132 pbc="F F F"
Tb       0.00000000       0.00000000       0.00000000       0.00000000       0.00000000       0.27470905
Tb       0.00000000       0.00000000       5.88242424       0.00000000       0.00000000      -0.27470905
2
Properties=species:S:1:pos:R:3:forces:R:3 energy=-0.6644750980607194 pbc="F F F"
Tb       0.00000000       0.00000000       0.00000000       0.00000000       0.00000000       0.09947240
Tb       0.00000000       0.00000000       5.94121212       0.00000000       0.00000000      -0.09947240
2
Properties=species:S:1:pos:R:3:forces:R:3 energy=-0.6612280055543273 pbc="F F F"
Tb       0.00000000       0.00000000       0.00000000       0.00000000       0.00000000       0.03298599
Tb       0.00000000       0.00000000       6.00000000       0.00000000       0.00000000      -0.03298599
