2
Properties=species:S:1:pos:R:3:forces:R:3 energy=9193.927325262148 pbc="F F F"
Te       0.00000000       0.00000000       0.00000000       0.00000000       0.00000000 -153255.18750000
Te       0.00000000       0.00000000       0.18000000       0.00000000       0.00000000  153255.18750000
2
Properties=species:S:1:pos:R:3:forces:R:3 energy=3759.8731260433983 pbc="F F F"
Te       0.00000000       0.00000000       0.00000000       0.00000000       0.00000000  -52499.31640625
Te       0.00000000       0.00000000       0.23878788       0.00000000       0.00000000   52499.31640625
2
Properties=species:S:1:pos:R:3:forces:R:3 energy=1752.0885801449608 pbc="F F F"
Te       0.00000000       0.00000000       0.00000000       0.00000000       0.00000000  -21188.57421875
Te       0.00000000       0.00000000       0.29757576       0.00000000       0.00000000   21188.57421875
2
Properties=species:S:1:pos:R:3:forces:R:3 energy=902.6715879606286 pbc="F F F"
Te       0.00000000       0.00000000       0.00000000       0.00000000       0.00000000   -9462.75000000
Te       0.00000000       0.00000000       0.35636364       0.00000000       0.00000000    9462.75000000
2
Properties=species:S:1:pos:R:3:forces:R:3 energy=511.01881697087055 pbc="F F F"
Te       0.00000000       0.00000000       0.00000000       0.00000000       0.00000000   -4526.92822266
Te       0.00000000       0.00000000       0.41515152       0.00000000       0.00000000    4526.92822266
2
Properties=species:S:1:pos:R:3:forces:R:3 energy=319.20827011487745 pbc="F F F"
Te       0.00000000       0.00000000       0.00000000       0.00000000       0.00000000   -2277.47509766
Te       0.00000000       0.00000000       0.47393939       0.00000000       0.00000000    2277.47509766
2
Properties=species:S:1:pos:R:3:forces:R:3 energy=221.046435426591 pbc="F F F"
Te       0.00000000       0.00000000       0.00000000       0.00000000       0.00000000   -1187.25634766
Te       0.00000000       0.00000000       0.53272727       0.00000000       0.00000000    1187.25634766
2
Properties=species:S:1:pos:R:3:forces:R:3 energy=169.39042962106896 pbc="F F F"
Te       0.00000000       0.00000000       0.00000000       0.00000000       0.00000000    -629.49645996
Te       0.00000000       0.00000000       0.59151515       0.00000000       0.00000000     629.49645996
2
Properties=species:S:1:pos:R:3:forces:R:3 energy=142.04623720171733 pbc="F F F"
Te       0.00000000       0.00000000       0.00000000       0.00000000       0.00000000    -330.87170410
Te       0.00000000       0.00000000       0.65030303       0.00000000       0.00000000     330.87170410
2
Properties=species:S:1:pos:R:3:forces:R:3 energy=127.84651504789463 pbc="F F F"
Te       0.00000000       0.00000000       0.00000000       0.00000000       0.00000000    -169.01075745
Te       0.00000000       0.00000000       0.70909091       0.00000000       0.00000000     169.01075745
2
Properties=species:S:1:pos:R:3:forces:R:3 energy=120.6412921734748 pbc="F F F"
Te       0.00000000       0.00000000       0.00000000       0.00000000       0.00000000     -86.21801758
Te       0.00000000       0.00000000       0.76787879       0.00000000       0.00000000      86.21801758
2
Properties=species:S:1:pos:R:3:forces:R:3 energy=116.76349248979275 pbc="F F F"
Te       0.00000000       0.00000000       0.00000000       0.00000000       0.00000000     -52.10781097
Te       0.00000000       0.00000000       0.82666667       0.00000000       0.00000000      52.10781097
2
Properties=species:S:1:pos:R:3:forces:R:3 energy=113.90505634247955 pbc="F F F"
Te       0.00000000       0.00000000       0.00000000       0.00000000       0.00000000     -49.30572128
Te       0.00000000       0.00000000       0.88545455       0.00000000       0.00000000      49.30572128
2
Properties=species:S:1:pos:R:3:forces:R:3 energy=110.57284260473612 pbc="F F F"
Te       0.00000000       0.00000000       0.00000000       0.00000000       0.00000000     -66.66219330
Te       0.00000000       0.00000000       0.94424242       0.00000000       0.00000000      66.66219330
2
Properties=species:S:1:pos:R:3:forces:R:3 energy=105.84064282798604 pbc="F F F"
Te       0.00000000       0.00000000       0.00000000       0.00000000       0.00000000     -95.59956360
Te       0.00000000       0.00000000       1.00303030       0.00000000       0.00000000      95.59956360
2
Properties=species:S:1:pos:R:3:forces:R:3 energy=99.25873478871452 pbc="F F F"
Te       0.00000000       0.00000000       0.00000000       0.00000000       0.00000000    -128.27955627
Te       0.00000000       0.00000000       1.06181818       0.00000000       0.00000000     128.27955627
2
Properties=species:S:1:pos:R:3:forces:R:3 energy=90.8536078239296 pbc="F F F"
Te       0.00000000       0.00000000       0.00000000       0.00000000       0.00000000    -156.01623535
Te       0.00000000       0.00000000       1.12060606       0.00000000       0.00000000     156.01623535
2
Properties=species:S:1:pos:R:3:forces:R:3 energy=81.2004954881386 pbc="F F F"
Te       0.00000000       0.00000000       0.00000000       0.00000000       0.00000000    -169.44413757
Te       0.00000000       0.00000000       1.17939394       0.00000000       0.00000000     169.44413757
2
Properties=species:S:1:pos:R:3:forces:R:3 energy=71.25052399401595 pbc="F F F"
Te       0.00000000       0.00000000       0.00000000       0.00000000       0.00000000    -167.08473206
Te       0.00000000       0.00000000       1.23818182       0.00000000       0.00000000     167.08473206
2
Properties=species:S:1:pos:R:3:forces:R:3 energy=61.67737664111407 pbc="F F F"
Te       0.00000000       0.00000000       0.00000000       0.00000000       0.00000000    -158.21450806
Te       0.00000000       0.00000000       1.29696970       0.00000000       0.00000000     158.21450806
2
Properties=species:S:1:pos:R:3:forces:R:3 energy=52.678929558050925 pbc="F F F"
Te       0.00000000       0.00000000       0.00000000       0.00000000       0.00000000    -147.60961914
Te       0.00000000       0.00000000       1.35575758       0.00000000       0.00000000     147.60961914
2
Properties=species:S:1:pos:R:3:forces:R:3 energy=44.35922880281577 pbc="F F F"
Te       0.00000000       0.00000000       0.00000000       0.00000000       0.00000000    -135.19351196
Te       0.00000000       0.00000000       1.41454545       0.00000000       0.00000000     135.19351196
2
Properties=species:S:1:pos:R:3:forces:R:3 energy=36.802178831835356 pbc="F F F"
Te       0.00000000       0.00000000       0.00000000       0.00000000       0.00000000    -121.75622559
Te       0.00000000       0.00000000       1.47333333       0.00000000       0.00000000     121.75622559
2
Properties=species:S:1:pos:R:3:forces:R:3 energy=30.064264127283206 pbc="F F F"
Te       0.00000000       0.00000000       0.00000000       0.00000000       0.00000000    -107.31340790
Te       0.00000000       0.00000000       1.53212121       0.00000000       0.00000000     107.31340790
2
Properties=species:S:1:pos:R:3:forces:R:3 energy=24.187257791327962 pbc="F F F"
Te       0.00000000       0.00000000       0.00000000       0.00000000       0.00000000     -92.79350281
Te       0.00000000       0.00000000       1.59090909       0.00000000       0.00000000      92.79350281
2
Properties=species:S:1:pos:R:3:forces:R:3 energy=19.11454623447181 pbc="F F F"
Te       0.00000000       0.00000000       0.00000000       0.00000000       0.00000000     -80.21732330
Te       0.00000000       0.00000000       1.64969697       0.00000000       0.00000000      80.21732330
2
Properties=species:S:1:pos:R:3:forces:R:3 energy=14.70757050492621 pbc="F F F"
Te       0.00000000       0.00000000       0.00000000       0.00000000       0.00000000     -70.02949524
Te       0.00000000       0.00000000       1.70848485       0.00000000       0.00000000      70.02949524
2
Properties=species:S:1:pos:R:3:forces:R:3 energy=10.85839019812792 pbc="F F F"
Te       0.00000000       0.00000000       0.00000000       0.00000000       0.00000000     -60.99708176
Te       0.00000000       0.00000000       1.76727273       0.00000000       0.00000000      60.99708176
2
Properties=species:S:1:pos:R:3:forces:R:3 energy=7.534553316811047 pbc="F F F"
Te       0.00000000       0.00000000       0.00000000       0.00000000       0.00000000     -52.06853867
Te       0.00000000       0.00000000       1.82606061       0.00000000       0.00000000      52.06853867
2
Properties=species:S:1:pos:R:3:forces:R:3 energy=4.7349321394326065 pbc="F F F"
Te       0.00000000       0.00000000       0.00000000       0.00000000       0.00000000     -43.23333740
Te       0.00000000       0.00000000       1.88484848       0.00000000       0.00000000      43.23333740
2
Properties=species:S:1:pos:R:3:forces:R:3 energy=2.438678987312206 pbc="F F F"
Te       0.00000000       0.00000000       0.00000000       0.00000000       0.00000000     -35.04025269
Te       0.00000000       0.00000000       1.94363636       0.00000000       0.00000000      35.04025269
2
Properties=species:S:1:pos:R:3:forces:R:3 energy=0.5934533987960167 pbc="F F F"
Te       0.00000000       0.00000000       0.00000000       0.00000000       0.00000000     -27.93671989
Te       0.00000000       0.00000000       2.00242424       0.00000000       0.00000000      27.93671989
2
Properties=species:S:1:pos:R:3:forces:R:3 energy=-0.8698249960660775 pbc="F F F"
Te       0.00000000       0.00000000       0.00000000       0.00000000       0.00000000     -22.04094124
Te       0.00000000       0.00000000       2.06121212       0.00000000       0.00000000      22.04094124
2
Properties=species:S:1:pos:R:3:forces:R:3 energy=-2.019490606175338 pbc="F F F"
Te       0.00000000       0.00000000       0.00000000       0.00000000       0.00000000     -17.23824310
Te       0.00000000       0.00000000       2.12000000       0.00000000       0.00000000      17.23824310
2
Properties=species:S:1:pos:R:3:forces:R:3 energy=-2.9140838182795354 pbc="F F F"
Te       0.00000000       0.00000000       0.00000000       0.00000000       0.00000000     -13.32741928
Te       0.00000000       0.00000000       2.17878788       0.00000000       0.00000000      13.32741928
2
Properties=species:S:1:pos:R:3:forces:R:3 energy=-3.600102328801448 pbc="F F F"
Te       0.00000000       0.00000000       0.00000000       0.00000000       0.00000000     -10.11354446
Te       0.00000000       0.00000000       2.23757576       0.00000000       0.00000000      10.11354446
2
Properties=species:S:1:pos:R:3:forces:R:3 energy=-4.11391998208093 pbc="F F F"
Te       0.00000000       0.00000000       0.00000000       0.00000000       0.00000000      -7.44894266
Te       0.00000000       0.00000000       2.29636364       0.00000000       0.00000000       7.44894266
2
Properties=species:S:1:pos:R:3:forces:R:3 energy=-4.484768998325302 pbc="F F F"
Te       0.00000000       0.00000000       0.00000000       0.00000000       0.00000000      -5.23719692
Te       0.00000000       0.00000000       2.35515152       0.00000000       0.00000000       5.23719692
2
Properties=species:S:1:pos:R:3:forces:R:3 energy=-4.737372313463513 pbc="F F F"
Te       0.00000000       0.00000000       0.00000000       0.00000000       0.00000000      -3.41822052
Te       0.00000000       0.00000000       2.41393939       0.00000000       0.00000000       3.41822052
2
Properties=species:S:1:pos:R:3:forces:R:3 energy=-4.893538686635353 pbc="F F F"
Te       0.00000000       0.00000000       0.00000000       0.00000000       0.00000000      -1.94982684
Te       0.00000000       0.00000000       2.47272727       0.00000000       0.00000000       1.94982684
2
Properties=species:S:1:pos:R:3:forces:R:3 energy=-4.972691184650398 pbc="F F F"
Te       0.00000000       0.00000000       0.00000000       0.00000000       0.00000000      -0.79060853
Te       0.00000000       0.00000000       2.53151515       0.00000000       0.00000000       0.79060853
2
Properties=species:S:1:pos:R:3:forces:R:3 energy=-4.991560604205672 pbc="F F F"
Te       0.00000000       0.00000000       0.00000000       0.00000000       0.00000000       0.11047496
Te       0.00000000       0.00000000       2.59030303       0.00000000       0.00000000      -0.11047496
2
Properties=species:S:1:pos:R:3:forces:R:3 energy=-4.963574933421647 pbc="F F F"
Te       0.00000000       0.00000000       0.00000000       0.00000000       0.00000000       0.81384259
Te       0.00000000       0.00000000       2.64909091       0.00000000       0.00000000      -0.81384259
2
Properties=species:S:1:pos:R:3:forces:R:3 energy=-4.898564086607167 pbc="F F F"
Te       0.00000000       0.00000000       0.00000000       0.00000000       0.00000000       1.37942708
Te       0.00000000       0.00000000       2.70787879       0.00000000       0.00000000      -1.37942708
2
Properties=species:S:1:pos:R:3:forces:R:3 energy=-4.803137624309028 pbc="F F F"
Te       0.00000000       0.00000000       0.00000000       0.00000000       0.00000000       1.85505068
Te       0.00000000       0.00000000       2.76666667       0.00000000       0.00000000      -1.85505068
2
Properties=species:S:1:pos:R:3:forces:R:3 energy=-4.681636122638143 pbc="F F F"
Te       0.00000000       0.00000000       0.00000000       0.00000000       0.00000000       2.26975989
Te       0.00000000       0.00000000       2.82545455       0.00000000       0.00000000      -2.26975989
2
Properties=species:S:1:pos:R:3:forces:R:3 energy=-4.537270454449912 pbc="F F F"
Te       0.00000000       0.00000000       0.00000000       0.00000000       0.00000000       2.63276219
Te       0.00000000       0.00000000       2.88424242       0.00000000       0.00000000      -2.63276219
2
Properties=species:S:1:pos:R:3:forces:R:3 energy=-4.373259621006176 pbc="F F F"
Te       0.00000000       0.00000000       0.00000000       0.00000000       0.00000000       2.93550658
Te       0.00000000       0.00000000       2.94303030       0.00000000       0.00000000      -2.93550658
2
Properties=species:S:1:pos:R:3:forces:R:3 energy=-4.193697359992666 pbc="F F F"
Te       0.00000000       0.00000000       0.00000000       0.00000000       0.00000000       3.15812588
Te       0.00000000       0.00000000       3.00181818       0.00000000       0.00000000      -3.15812588
2
Properties=species:S:1:pos:R:3:forces:R:3 energy=-4.003898085213698 pbc="F F F"
Te       0.00000000       0.00000000       0.00000000       0.00000000       0.00000000       3.28128743
Te       0.00000000       0.00000000       3.06060606       0.00000000       0.00000000      -3.28128743
2
Properties=species:S:1:pos:R:3:forces:R:3 energy=-3.8099915196507403 pbc="F F F"
Te       0.00000000       0.00000000       0.00000000       0.00000000       0.00000000       3.29822969
Te       0.00000000       0.00000000       3.11939394       0.00000000       0.00000000      -3.29822969
2
Properties=species:S:1:pos:R:3:forces:R:3 energy=-3.618002824235248 pbc="F F F"
Te       0.00000000       0.00000000       0.00000000       0.00000000       0.00000000       3.21876073
Te       0.00000000       0.00000000       3.17818182       0.00000000       0.00000000      -3.21876073
2
Properties=species:S:1:pos:R:3:forces:R:3 energy=-3.433015948368663 pbc="F F F"
Te       0.00000000       0.00000000       0.00000000       0.00000000       0.00000000       3.06421113
Te       0.00000000       0.00000000       3.23696970       0.00000000       0.00000000      -3.06421113
2
Properties=species:S:1:pos:R:3:forces:R:3 energy=-3.2587036855601657 pbc="F F F"
Te       0.00000000       0.00000000       0.00000000       0.00000000       0.00000000       2.85978508
Te       0.00000000       0.00000000       3.29575758       0.00000000       0.00000000      -2.85978508
2
Properties=species:S:1:pos:R:3:forces:R:3 energy=-3.097280764323297 pbc="F F F"
Te       0.00000000       0.00000000       0.00000000       0.00000000       0.00000000       2.62943292
Te       0.00000000       0.00000000       3.35454545       0.00000000       0.00000000      -2.62943292
2
Properties=species:S:1:pos:R:3:forces:R:3 energy=-2.9496558988809536 pbc="F F F"
Te       0.00000000       0.00000000       0.00000000       0.00000000       0.00000000       2.39328408
Te       0.00000000       0.00000000       3.41333333       0.00000000       0.00000000      -2.39328408
2
Properties=species:S:1:pos:R:3:forces:R:3 energy=-2.8157085788005998 pbc="F F F"
Te       0.00000000       0.00000000       0.00000000       0.00000000       0.00000000       2.16604710
Te       0.00000000       0.00000000       3.47212121       0.00000000       0.00000000      -2.16604710
2
Properties=species:S:1:pos:R:3:forces:R:3 energy=-2.6946360267114953 pbc="F F F"
Te       0.00000000       0.00000000       0.00000000       0.00000000       0.00000000       1.95627439
Te       0.00000000       0.00000000       3.53090909       0.00000000       0.00000000      -1.95627439
2
Properties=species:S:1:pos:R:3:forces:R:3 energy=-2.585292725368269 pbc="F F F"
Te       0.00000000       0.00000000       0.00000000       0.00000000       0.00000000       1.76708460
Te       0.00000000       0.00000000       3.58969697       0.00000000       0.00000000      -1.76708460
2
Properties=species:S:1:pos:R:3:forces:R:3 energy=-2.4864722110683197 pbc="F F F"
Te       0.00000000       0.00000000       0.00000000       0.00000000       0.00000000       1.59806657
Te       0.00000000       0.00000000       3.64848485       0.00000000       0.00000000      -1.59806657
2
Properties=species:S:1:pos:R:3:forces:R:3 energy=-2.39704312346545 pbc="F F F"
Te       0.00000000       0.00000000       0.00000000       0.00000000       0.00000000       1.44726729
Te       0.00000000       0.00000000       3.70727273       0.00000000       0.00000000      -1.44726729
2
Properties=species:S:1:pos:R:3:forces:R:3 energy=-2.315995548305149 pbc="F F F"
Te       0.00000000       0.00000000       0.00000000       0.00000000       0.00000000       1.31246984
Te       0.00000000       0.00000000       3.76606061       0.00000000       0.00000000      -1.31246984
2
Properties=species:S:1:pos:R:3:forces:R:3 energy=-2.2424527918018105 pbc="F F F"
Te       0.00000000       0.00000000       0.00000000       0.00000000       0.00000000       1.19173181
Te       0.00000000       0.00000000       3.82484848       0.00000000       0.00000000      -1.19173181
2
Properties=species:S:1:pos:R:3:forces:R:3 energy=-2.1756338467195886 pbc="F F F"
Te       0.00000000       0.00000000       0.00000000       0.00000000       0.00000000       1.08339703
Te       0.00000000       0.00000000       3.88363636       0.00000000       0.00000000      -1.08339703
2
Properties=species:S:1:pos:R:3:forces:R:3 energy=-2.1148552712106303 pbc="F F F"
Te       0.00000000       0.00000000       0.00000000       0.00000000       0.00000000       0.98606807
Te       0.00000000       0.00000000       3.94242424       0.00000000       0.00000000      -0.98606807
2
Properties=species:S:1:pos:R:3:forces:R:3 energy=-2.0595047211849735 pbc="F F F"
Te       0.00000000       0.00000000       0.00000000       0.00000000       0.00000000       0.89855492
Te       0.00000000       0.00000000       4.00121212       0.00000000       0.00000000      -0.89855492
2
Properties=species:S:1:pos:R:3:forces:R:3 energy=-2.0090331173434794 pbc="F F F"
Te       0.00000000       0.00000000       0.00000000       0.00000000       0.00000000       0.81993258
Te       0.00000000       0.00000000       4.06000000       0.00000000       0.00000000      -0.81993258
2
Properties=species:S:1:pos:R:3:forces:R:3 energy=-1.9629386046087687 pbc="F F F"
Te       0.00000000       0.00000000       0.00000000       0.00000000       0.00000000       0.74957985
Te       0.00000000       0.00000000       4.11878788       0.00000000       0.00000000      -0.74957985
2
Properties=species:S:1:pos:R:3:forces:R:3 energy=-1.9207455902971926 pbc="F F F"
Te       0.00000000       0.00000000       0.00000000       0.00000000       0.00000000       0.68714911
Te       0.00000000       0.00000000       4.17757576       0.00000000       0.00000000      -0.68714911
2
Properties=species:S:1:pos:R:3:forces:R:3 energy=-1.8819940921424232 pbc="F F F"
Te       0.00000000       0.00000000       0.00000000       0.00000000       0.00000000       0.63248283
Te       0.00000000       0.00000000       4.23636364       0.00000000       0.00000000      -0.63248283
2
Properties=species:S:1:pos:R:3:forces:R:3 energy=-1.846230223727045 pbc="F F F"
Te       0.00000000       0.00000000       0.00000000       0.00000000       0.00000000       0.58546007
Te       0.00000000       0.00000000       4.29515152       0.00000000       0.00000000      -0.58546007
2
Properties=species:S:1:pos:R:3:forces:R:3 energy=-1.8130127941750374 pbc="F F F"
Te       0.00000000       0.00000000       0.00000000       0.00000000       0.00000000       0.54584926
Te       0.00000000       0.00000000       4.35393939       0.00000000       0.00000000      -0.54584926
2
Properties=species:S:1:pos:R:3:forces:R:3 energy=-1.7819162048526858 pbc="F F F"
Te       0.00000000       0.00000000       0.00000000       0.00000000       0.00000000       0.51317704
Te       0.00000000       0.00000000       4.41272727       0.00000000       0.00000000      -0.51317704
2
Properties=species:S:1:pos:R:3:forces:R:3 energy=-1.7525538048858673 pbc="F F F"
Te       0.00000000       0.00000000       0.00000000       0.00000000       0.00000000       0.48669353
Te       0.00000000       0.00000000       4.47151515       0.00000000       0.00000000      -0.48669353
2
Properties=species:S:1:pos:R:3:forces:R:3 energy=-1.7245903784571017 pbc="F F F"
Te       0.00000000       0.00000000       0.00000000       0.00000000       0.00000000       0.46540412
Te       0.00000000       0.00000000       4.53030303       0.00000000       0.00000000      -0.46540412
2
Properties=species:S:1:pos:R:3:forces:R:3 energy=-1.697754536236021 pbc="F F F"
Te       0.00000000       0.00000000       0.00000000       0.00000000       0.00000000       0.44815895
Te       0.00000000       0.00000000       4.58909091       0.00000000       0.00000000      -0.44815895
2
Properties=species:S:1:pos:R:3:forces:R:3 energy=-1.6718425530833079 pbc="F F F"
Te       0.00000000       0.00000000       0.00000000       0.00000000       0.00000000       0.43377519
Te       0.00000000       0.00000000       4.64787879       0.00000000       0.00000000      -0.43377519
2
Properties=species:S:1:pos:R:3:forces:R:3 energy=-1.6467186112210077 pbc="F F F"
Te       0.00000000       0.00000000       0.00000000       0.00000000       0.00000000       0.42115223
Te       0.00000000       0.00000000       4.70666667       0.00000000       0.00000000      -0.42115223
2
Properties=species:S:1:pos:R:3:forces:R:3 energy=-1.6223093360281016 pbc="F F F"
Te       0.00000000       0.00000000       0.00000000       0.00000000       0.00000000       0.40933502
Te       0.00000000       0.00000000       4.76545455       0.00000000       0.00000000      -0.40933502
2
Properties=species:S:1:pos:R:3:forces:R:3 energy=-1.5985898295466958 pbc="F F F"
Te       0.00000000       0.00000000       0.00000000       0.00000000       0.00000000       0.39753231
Te       0.00000000       0.00000000       4.82424242       0.00000000       0.00000000      -0.39753231
2
Properties=species:S:1:pos:R:3:forces:R:3 energy=-1.5755834003852212 pbc="F F F"
Te       0.00000000       0.00000000       0.00000000       0.00000000       0.00000000       0.38507539
Te       0.00000000       0.00000000       4.88303030       0.00000000       0.00000000      -0.38507539
2
Properties=species:S:1:pos:R:3:forces:R:3 energy=-1.5533394133812903 pbc="F F F"
Te       0.00000000       0.00000000       0.00000000       0.00000000       0.00000000       0.37136203
Te       0.00000000       0.00000000       4.94181818       0.00000000       0.00000000      -0.37136203
2
Properties=species:S:1:pos:R:3:forces:R:3 energy=-1.5319532751646967 pbc="F F F"
Te       0.00000000       0.00000000       0.00000000       0.00000000       0.00000000       0.35584819
Te       0.00000000       0.00000000       5.00060606       0.00000000       0.00000000      -0.35584819
2
Properties=species:S:1:pos:R:3:forces:R:3 energy=-1.5115399649433987 pbc="F F F"
Te       0.00000000       0.00000000       0.00000000       0.00000000       0.00000000       0.33829582
Te       0.00000000       0.00000000       5.05939394       0.00000000       0.00000000      -0.33829582
2
Properties=species:S:1:pos:R:3:forces:R:3 energy=-1.4922049015034509 pbc="F F F"
Te       0.00000000       0.00000000       0.00000000       0.00000000       0.00000000       0.31940570
Te       0.00000000       0.00000000       5.11818182       0.00000000       0.00000000      -0.31940570
2
Properties=species:S:1:pos:R:3:forces:R:3 energy=-1.4739666777503915 pbc="F F F"
Te       0.00000000       0.00000000       0.00000000       0.00000000       0.00000000       0.30158255
Te       0.00000000       0.00000000       5.17696970       0.00000000       0.00000000      -0.30158255
2
Properties=species:S:1:pos:R:3:forces:R:3 energy=-1.4566583443301193 pbc="F F F"
Te       0.00000000       0.00000000       0.00000000       0.00000000       0.00000000       0.28826410
Te       0.00000000       0.00000000       5.23575758       0.00000000       0.00000000      -0.28826410
2
Properties=species:S:1:pos:R:3:forces:R:3 energy=-1.4399682235554285 pbc="F F F"
Te       0.00000000       0.00000000       0.00000000       0.00000000       0.00000000       0.28016287
Te       0.00000000       0.00000000       5.29454545       0.00000000       0.00000000      -0.28016287
2
Properties=species:S:1:pos:R:3:forces:R:3 energy=-1.4237177351588386 pbc="F F F"
Te       0.00000000       0.00000000       0.00000000       0.00000000       0.00000000       0.27195588
Te       0.00000000       0.00000000       5.35333333       0.00000000       0.00000000      -0.27195588
2
Properties=species:S:1:pos:R:3:forces:R:3 energy=-1.4081306679029353 pbc="F F F"
Te       0.00000000       0.00000000       0.00000000       0.00000000       0.00000000       0.25687456
Te       0.00000000       0.00000000       5.41212121       0.00000000       0.00000000      -0.25687456
2
Properties=species:S:1:pos:R:3:forces:R:3 energy=-1.3936537533445257 pbc="F F F"
Te       0.00000000       0.00000000       0.00000000       0.00000000       0.00000000       0.23499332
Te       0.00000000       0.00000000       5.47090909       0.00000000       0.00000000      -0.23499332
2
Properties=species:S:1:pos:R:3:forces:R:3 energy=-1.3804916335639232 pbc="F F F"
Te       0.00000000       0.00000000       0.00000000       0.00000000       0.00000000       0.21358800
Te       0.00000000       0.00000000       5.52969697       0.00000000       0.00000000      -0.21358800
2
Properties=species:S:1:pos:R:3:forces:R:3 energy=-1.3683823104612116 pbc="F F F"
Te       0.00000000       0.00000000       0.00000000       0.00000000       0.00000000       0.19992436
Te       0.00000000       0.00000000       5.58848485       0.00000000       0.00000000      -0.19992436
2
Properties=species:S:1:pos:R:3:forces:R:3 energy=-1.35686638052067 pbc="F F F"
Te       0.00000000       0.00000000       0.00000000       0.00000000       0.00000000       0.19191779
Te       0.00000000       0.00000000       5.64727273       0.00000000       0.00000000      -0.19191779
2
Properties=species:S:1:pos:R:3:forces:R:3 energy=-1.3459695016578084 pbc="F F F"
Te       0.00000000       0.00000000       0.00000000       0.00000000       0.00000000       0.17648539
Te       0.00000000       0.00000000       5.70606061       0.00000000       0.00000000      -0.17648539
2
Properties=species:S:1:pos:R:3:forces:R:3 energy=-1.336455747805705 pbc="F F F"
Te       0.00000000       0.00000000       0.00000000       0.00000000       0.00000000       0.14356124
Te       0.00000000       0.00000000       5.76484848       0.00000000       0.00000000      -0.14356124
2
Properties=species:S:1:pos:R:3:forces:R:3 energy=-1.3293472604184722 pbc="F F F"
Te       0.00000000       0.00000000       0.00000000       0.00000000       0.00000000       0.09746815
Te       0.00000000       0.00000000       5.82363636       0.00000000       0.00000000      -0.09746815
2
Properties=species:S:1:pos:R:3:forces:R:3 energy=-1.3250017673909347 pbc="F F F"
Te       0.00000000       0.00000000       0.00000000       0.00000000       0.00000000       0.05192411
Te       0.00000000       0.00000000       5.88242424       0.00000000       0.00000000      -0.05192411
2
Properties=species:S:1:pos:R:3:forces:R:3 energy=-1.3229841316733375 pbc="F F F"
Te       0.00000000       0.00000000       0.00000000       0.00000000       0.00000000       0.01936514
Te       0.00000000       0.00000000       5.94121212       0.00000000       0.00000000      -0.01936514
2
Properties=species:S:1:pos:R:3:forces:R:3 energy=-1.3223168155323803 pbc="F F F"
Te       0.00000000       0.00000000       0.00000000       0.00000000       0.00000000       0.00726031
Te       0.00000000       0.00000000       6.00000000       0.00000000       0.00000000      -0.00726031
