2
Properties=species:S:1:pos:R:3:forces:R:3 energy=6349.4294025532445 pbc="F F F"
Zr       0.00000000       0.00000000       0.00000000       0.00000000       0.00000000 -102790.83593750
Zr       0.00000000       0.00000000       0.18000000       0.00000000       0.00000000  102790.83593750
2
Properties=species:S:1:pos:R:3:forces:R:3 energy=2666.2641193501195 pbc="F F F"
Zr       0.00000000       0.00000000       0.00000000       0.00000000       0.00000000  -36104.55468750
Zr       0.00000000       0.00000000       0.23878788       0.00000000       0.00000000   36104.55468750
2
Properties=species:S:1:pos:R:3:forces:R:3 energy=1270.6993000141817 pbc="F F F"
Zr       0.00000000       0.00000000       0.00000000       0.00000000       0.00000000  -14944.60058594
Zr       0.00000000       0.00000000       0.29757576       0.00000000       0.00000000   14944.60058594
2
Properties=species:S:1:pos:R:3:forces:R:3 energy=664.7003376118381 pbc="F F F"
Zr       0.00000000       0.00000000       0.00000000       0.00000000       0.00000000   -6853.07617188
Zr       0.00000000       0.00000000       0.35636364       0.00000000       0.00000000    6853.07617188
2
Properties=species:S:1:pos:R:3:forces:R:3 energy=377.74242135840814 pbc="F F F"
Zr       0.00000000       0.00000000       0.00000000       0.00000000       0.00000000   -3365.65283203
Zr       0.00000000       0.00000000       0.41515152       0.00000000       0.00000000    3365.65283203
2
Properties=species:S:1:pos:R:3:forces:R:3 energy=233.52991220947033 pbc="F F F"
Zr       0.00000000       0.00000000       0.00000000       0.00000000       0.00000000   -1736.02001953
Zr       0.00000000       0.00000000       0.47393939       0.00000000       0.00000000    1736.02001953
2
Properties=species:S:1:pos:R:3:forces:R:3 energy=157.89484142136035 pbc="F F F"
Zr       0.00000000       0.00000000       0.00000000       0.00000000       0.00000000    -927.09167480
Zr       0.00000000       0.00000000       0.53272727       0.00000000       0.00000000     927.09167480
2
Properties=species:S:1:pos:R:3:forces:R:3 energy=117.09294630510136 pbc="F F F"
Zr       0.00000000       0.00000000       0.00000000       0.00000000       0.00000000    -504.74832153
Zr       0.00000000       0.00000000       0.59151515       0.00000000       0.00000000     504.74832153
2
Properties=species:S:1:pos:R:3:forces:R:3 energy=94.84437304622823 pbc="F F F"
Zr       0.00000000       0.00000000       0.00000000       0.00000000       0.00000000    -274.64270020
Zr       0.00000000       0.00000000       0.65030303       0.00000000       0.00000000     274.64270020
2
Properties=species:S:1:pos:R:3:forces:R:3 energy=82.83139550948701 pbc="F F F"
Zr       0.00000000       0.00000000       0.00000000       0.00000000       0.00000000    -146.56726074
Zr       0.00000000       0.00000000       0.70909091       0.00000000       0.00000000     146.56726074
2
Properties=species:S:1:pos:R:3:forces:R:3 energy=76.46069095364277 pbc="F F F"
Zr       0.00000000       0.00000000       0.00000000       0.00000000       0.00000000     -77.83200836
Zr       0.00000000       0.00000000       0.76787879       0.00000000       0.00000000      77.83200836
2
Properties=species:S:1:pos:R:3:forces:R:3 energy=72.97170795140136 pbc="F F F"
Zr       0.00000000       0.00000000       0.00000000       0.00000000       0.00000000     -45.40036774
Zr       0.00000000       0.00000000       0.82666667       0.00000000       0.00000000      45.40036774
2
Properties=species:S:1:pos:R:3:forces:R:3 energy=70.74113259895418 pbc="F F F"
Zr       0.00000000       0.00000000       0.00000000       0.00000000       0.00000000     -32.67168045
Zr       0.00000000       0.00000000       0.88545455       0.00000000       0.00000000      32.67168045
2
Properties=species:S:1:pos:R:3:forces:R:3 energy=68.94096962135085 pbc="F F F"
Zr       0.00000000       0.00000000       0.00000000       0.00000000       0.00000000     -29.91933823
Zr       0.00000000       0.00000000       0.94424242       0.00000000       0.00000000      29.91933823
2
Properties=species:S:1:pos:R:3:forces:R:3 energy=67.06062944432456 pbc="F F F"
Zr       0.00000000       0.00000000       0.00000000       0.00000000       0.00000000     -35.52999115
Zr       0.00000000       0.00000000       1.00303030       0.00000000       0.00000000      35.52999115
2
Properties=species:S:1:pos:R:3:forces:R:3 energy=64.5832053612723 pbc="F F F"
Zr       0.00000000       0.00000000       0.00000000       0.00000000       0.00000000     -50.26588821
Zr       0.00000000       0.00000000       1.06181818       0.00000000       0.00000000      50.26588821
2
Properties=species:S:1:pos:R:3:forces:R:3 energy=60.993392851113875 pbc="F F F"
Zr       0.00000000       0.00000000       0.00000000       0.00000000       0.00000000     -72.90489197
Zr       0.00000000       0.00000000       1.12060606       0.00000000       0.00000000      72.90489197
2
Properties=species:S:1:pos:R:3:forces:R:3 energy=55.94183053218542 pbc="F F F"
Zr       0.00000000       0.00000000       0.00000000       0.00000000       0.00000000     -99.02779388
Zr       0.00000000       0.00000000       1.17939394       0.00000000       0.00000000      99.02779388
2
Properties=species:S:1:pos:R:3:forces:R:3 energy=49.39992348446897 pbc="F F F"
Zr       0.00000000       0.00000000       0.00000000       0.00000000       0.00000000    -122.68410492
Zr       0.00000000       0.00000000       1.23818182       0.00000000       0.00000000     122.68410492
2
Properties=species:S:1:pos:R:3:forces:R:3 energy=41.65073757355504 pbc="F F F"
Zr       0.00000000       0.00000000       0.00000000       0.00000000       0.00000000    -139.60731506
Zr       0.00000000       0.00000000       1.29696970       0.00000000       0.00000000     139.60731506
2
Properties=species:S:1:pos:R:3:forces:R:3 energy=33.15479074610087 pbc="F F F"
Zr       0.00000000       0.00000000       0.00000000       0.00000000       0.00000000    -147.92521667
Zr       0.00000000       0.00000000       1.35575758       0.00000000       0.00000000     147.92521667
2
Properties=species:S:1:pos:R:3:forces:R:3 energy=24.448557331382027 pbc="F F F"
Zr       0.00000000       0.00000000       0.00000000       0.00000000       0.00000000    -146.43492126
Zr       0.00000000       0.00000000       1.41454545       0.00000000       0.00000000     146.43492126
2
Properties=species:S:1:pos:R:3:forces:R:3 energy=16.18983046947713 pbc="F F F"
Zr       0.00000000       0.00000000       0.00000000       0.00000000       0.00000000    -132.15124512
Zr       0.00000000       0.00000000       1.47333333       0.00000000       0.00000000     132.15124512
2
Properties=species:S:1:pos:R:3:forces:R:3 energy=9.166823991614878 pbc="F F F"
Zr       0.00000000       0.00000000       0.00000000       0.00000000       0.00000000    -105.23818207
Zr       0.00000000       0.00000000       1.53212121       0.00000000       0.00000000     105.23818207
2
Properties=species:S:1:pos:R:3:forces:R:3 energy=3.867135973196104 pbc="F F F"
Zr       0.00000000       0.00000000       0.00000000       0.00000000       0.00000000     -75.70768738
Zr       0.00000000       0.00000000       1.59090909       0.00000000       0.00000000      75.70768738
2
Properties=species:S:1:pos:R:3:forces:R:3 energy=0.1256683949755827 pbc="F F F"
Zr       0.00000000       0.00000000       0.00000000       0.00000000       0.00000000     -52.87385941
Zr       0.00000000       0.00000000       1.64969697       0.00000000       0.00000000      52.87385941
2
Properties=species:S:1:pos:R:3:forces:R:3 energy=-2.4758823190948593 pbc="F F F"
Zr       0.00000000       0.00000000       0.00000000       0.00000000       0.00000000     -36.50511932
Zr       0.00000000       0.00000000       1.70848485       0.00000000       0.00000000      36.50511932
2
Properties=species:S:1:pos:R:3:forces:R:3 energy=-4.261546139849824 pbc="F F F"
Zr       0.00000000       0.00000000       0.00000000       0.00000000       0.00000000     -25.03657722
Zr       0.00000000       0.00000000       1.76727273       0.00000000       0.00000000      25.03657722
2
Properties=species:S:1:pos:R:3:forces:R:3 energy=-5.506189207093251 pbc="F F F"
Zr       0.00000000       0.00000000       0.00000000       0.00000000       0.00000000     -17.93302536
Zr       0.00000000       0.00000000       1.82606061       0.00000000       0.00000000      17.93302536
2
Properties=species:S:1:pos:R:3:forces:R:3 energy=-6.425092032319214 pbc="F F F"
Zr       0.00000000       0.00000000       0.00000000       0.00000000       0.00000000     -13.64186668
Zr       0.00000000       0.00000000       1.88484848       0.00000000       0.00000000      13.64186668
2
Properties=species:S:1:pos:R:3:forces:R:3 energy=-7.133320426256388 pbc="F F F"
Zr       0.00000000       0.00000000       0.00000000       0.00000000       0.00000000     -10.56863689
Zr       0.00000000       0.00000000       1.94363636       0.00000000       0.00000000      10.56863689
2
Properties=species:S:1:pos:R:3:forces:R:3 energy=-7.677028672546819 pbc="F F F"
Zr       0.00000000       0.00000000       0.00000000       0.00000000       0.00000000      -7.99052620
Zr       0.00000000       0.00000000       2.00242424       0.00000000       0.00000000       7.99052620
2
Properties=species:S:1:pos:R:3:forces:R:3 energy=-8.079802358470447 pbc="F F F"
Zr       0.00000000       0.00000000       0.00000000       0.00000000       0.00000000      -5.77236700
Zr       0.00000000       0.00000000       2.06121212       0.00000000       0.00000000       5.77236700
2
Properties=species:S:1:pos:R:3:forces:R:3 energy=-8.362886328382748 pbc="F F F"
Zr       0.00000000       0.00000000       0.00000000       0.00000000       0.00000000      -3.91832256
Zr       0.00000000       0.00000000       2.12000000       0.00000000       0.00000000       3.91832256
2
Properties=species:S:1:pos:R:3:forces:R:3 energy=-8.5471832856428 pbc="F F F"
Zr       0.00000000       0.00000000       0.00000000       0.00000000       0.00000000      -2.40409088
Zr       0.00000000       0.00000000       2.17878788       0.00000000       0.00000000       2.40409088
2
Properties=species:S:1:pos:R:3:forces:R:3 energy=-8.65114060871924 pbc="F F F"
Zr       0.00000000       0.00000000       0.00000000       0.00000000       0.00000000      -1.17541361
Zr       0.00000000       0.00000000       2.23757576       0.00000000       0.00000000       1.17541361
2
Properties=species:S:1:pos:R:3:forces:R:3 energy=-8.689925574962029 pbc="F F F"
Zr       0.00000000       0.00000000       0.00000000       0.00000000       0.00000000      -0.17915873
Zr       0.00000000       0.00000000       2.29636364       0.00000000       0.00000000       0.17915873
2
Properties=species:S:1:pos:R:3:forces:R:3 energy=-8.676001861398536 pbc="F F F"
Zr       0.00000000       0.00000000       0.00000000       0.00000000       0.00000000       0.62305397
Zr       0.00000000       0.00000000       2.35515152       0.00000000       0.00000000      -0.62305397
2
Properties=species:S:1:pos:R:3:forces:R:3 energy=-8.619916050284186 pbc="F F F"
Zr       0.00000000       0.00000000       0.00000000       0.00000000       0.00000000       1.25960898
Zr       0.00000000       0.00000000       2.41393939       0.00000000       0.00000000      -1.25960898
2
Properties=species:S:1:pos:R:3:forces:R:3 energy=-8.530613076561625 pbc="F F F"
Zr       0.00000000       0.00000000       0.00000000       0.00000000       0.00000000       1.75782156
Zr       0.00000000       0.00000000       2.47272727       0.00000000       0.00000000      -1.75782156
2
Properties=species:S:1:pos:R:3:forces:R:3 energy=-8.415415547809003 pbc="F F F"
Zr       0.00000000       0.00000000       0.00000000       0.00000000       0.00000000       2.14470887
Zr       0.00000000       0.00000000       2.53151515       0.00000000       0.00000000      -2.14470887
2
Properties=species:S:1:pos:R:3:forces:R:3 energy=-8.280255550135605 pbc="F F F"
Zr       0.00000000       0.00000000       0.00000000       0.00000000       0.00000000       2.43878675
Zr       0.00000000       0.00000000       2.59030303       0.00000000       0.00000000      -2.43878675
2
Properties=species:S:1:pos:R:3:forces:R:3 energy=-8.130430097304929 pbc="F F F"
Zr       0.00000000       0.00000000       0.00000000       0.00000000       0.00000000       2.64269090
Zr       0.00000000       0.00000000       2.64909091       0.00000000       0.00000000      -2.64269090
2
Properties=species:S:1:pos:R:3:forces:R:3 energy=-7.9715201616897176 pbc="F F F"
Zr       0.00000000       0.00000000       0.00000000       0.00000000       0.00000000       2.74547815
Zr       0.00000000       0.00000000       2.70787879       0.00000000       0.00000000      -2.74547815
2
Properties=species:S:1:pos:R:3:forces:R:3 energy=-7.8098529806008035 pbc="F F F"
Zr       0.00000000       0.00000000       0.00000000       0.00000000       0.00000000       2.73518372
Zr       0.00000000       0.00000000       2.76666667       0.00000000       0.00000000      -2.73518372
2
Properties=species:S:1:pos:R:3:forces:R:3 energy=-7.652121596296561 pbc="F F F"
Zr       0.00000000       0.00000000       0.00000000       0.00000000       0.00000000       2.61365271
Zr       0.00000000       0.00000000       2.82545455       0.00000000       0.00000000      -2.61365271
2
Properties=species:S:1:pos:R:3:forces:R:3 energy=-7.504281812987908 pbc="F F F"
Zr       0.00000000       0.00000000       0.00000000       0.00000000       0.00000000       2.40445638
Zr       0.00000000       0.00000000       2.88424242       0.00000000       0.00000000      -2.40445638
2
Properties=species:S:1:pos:R:3:forces:R:3 energy=-7.370306726596975 pbc="F F F"
Zr       0.00000000       0.00000000       0.00000000       0.00000000       0.00000000       2.15006566
Zr       0.00000000       0.00000000       2.94303030       0.00000000       0.00000000      -2.15006566
2
Properties=species:S:1:pos:R:3:forces:R:3 energy=-7.251391181060977 pbc="F F F"
Zr       0.00000000       0.00000000       0.00000000       0.00000000       0.00000000       1.90022302
Zr       0.00000000       0.00000000       3.00181818       0.00000000       0.00000000      -1.90022302
2
Properties=species:S:1:pos:R:3:forces:R:3 energy=-7.145960619866695 pbc="F F F"
Zr       0.00000000       0.00000000       0.00000000       0.00000000       0.00000000       1.69700658
Zr       0.00000000       0.00000000       3.06060606       0.00000000       0.00000000      -1.69700658
2
Properties=species:S:1:pos:R:3:forces:R:3 energy=-7.050485022245682 pbc="F F F"
Zr       0.00000000       0.00000000       0.00000000       0.00000000       0.00000000       1.56348443
Zr       0.00000000       0.00000000       3.11939394       0.00000000       0.00000000      -1.56348443
2
Properties=species:S:1:pos:R:3:forces:R:3 energy=-6.960718357997886 pbc="F F F"
Zr       0.00000000       0.00000000       0.00000000       0.00000000       0.00000000       1.50158978
Zr       0.00000000       0.00000000       3.17818182       0.00000000       0.00000000      -1.50158978
2
Properties=species:S:1:pos:R:3:forces:R:3 energy=-6.87276485780515 pbc="F F F"
Zr       0.00000000       0.00000000       0.00000000       0.00000000       0.00000000       1.49928236
Zr       0.00000000       0.00000000       3.23696970       0.00000000       0.00000000      -1.49928236
2
Properties=species:S:1:pos:R:3:forces:R:3 energy=-6.783597415749114 pbc="F F F"
Zr       0.00000000       0.00000000       0.00000000       0.00000000       0.00000000       1.53990698
Zr       0.00000000       0.00000000       3.29575758       0.00000000       0.00000000      -1.53990698
2
Properties=species:S:1:pos:R:3:forces:R:3 energy=-6.69125237635693 pbc="F F F"
Zr       0.00000000       0.00000000       0.00000000       0.00000000       0.00000000       1.60350692
Zr       0.00000000       0.00000000       3.35454545       0.00000000       0.00000000      -1.60350692
2
Properties=species:S:1:pos:R:3:forces:R:3 energy=-6.595143943105576 pbc="F F F"
Zr       0.00000000       0.00000000       0.00000000       0.00000000       0.00000000       1.66298449
Zr       0.00000000       0.00000000       3.41333333       0.00000000       0.00000000      -1.66298449
2
Properties=species:S:1:pos:R:3:forces:R:3 energy=-6.496334051799149 pbc="F F F"
Zr       0.00000000       0.00000000       0.00000000       0.00000000       0.00000000       1.69200134
Zr       0.00000000       0.00000000       3.47212121       0.00000000       0.00000000      -1.69200134
2
Properties=species:S:1:pos:R:3:forces:R:3 energy=-6.397026150370224 pbc="F F F"
Zr       0.00000000       0.00000000       0.00000000       0.00000000       0.00000000       1.67980969
Zr       0.00000000       0.00000000       3.53090909       0.00000000       0.00000000      -1.67980969
2
Properties=species:S:1:pos:R:3:forces:R:3 energy=-6.29952117231367 pbc="F F F"
Zr       0.00000000       0.00000000       0.00000000       0.00000000       0.00000000       1.63253212
Zr       0.00000000       0.00000000       3.58969697       0.00000000       0.00000000      -1.63253212
2
Properties=species:S:1:pos:R:3:forces:R:3 energy=-6.205503357045243 pbc="F F F"
Zr       0.00000000       0.00000000       0.00000000       0.00000000       0.00000000       1.56355059
Zr       0.00000000       0.00000000       3.64848485       0.00000000       0.00000000      -1.56355059
2
Properties=species:S:1:pos:R:3:forces:R:3 energy=-6.115857246239546 pbc="F F F"
Zr       0.00000000       0.00000000       0.00000000       0.00000000       0.00000000       1.48568356
Zr       0.00000000       0.00000000       3.70727273       0.00000000       0.00000000      -1.48568356
2
Properties=species:S:1:pos:R:3:forces:R:3 energy=-6.03081288904519 pbc="F F F"
Zr       0.00000000       0.00000000       0.00000000       0.00000000       0.00000000       1.40813732
Zr       0.00000000       0.00000000       3.76606061       0.00000000       0.00000000      -1.40813732
2
Properties=species:S:1:pos:R:3:forces:R:3 energy=-5.950185218958651 pbc="F F F"
Zr       0.00000000       0.00000000       0.00000000       0.00000000       0.00000000       1.33606362
Zr       0.00000000       0.00000000       3.82484848       0.00000000       0.00000000      -1.33606362
2
Properties=species:S:1:pos:R:3:forces:R:3 energy=-5.873580952136602 pbc="F F F"
Zr       0.00000000       0.00000000       0.00000000       0.00000000       0.00000000       1.27124095
Zr       0.00000000       0.00000000       3.88363636       0.00000000       0.00000000      -1.27124095
2
Properties=species:S:1:pos:R:3:forces:R:3 energy=-5.800582868097506 pbc="F F F"
Zr       0.00000000       0.00000000       0.00000000       0.00000000       0.00000000       1.21325767
Zr       0.00000000       0.00000000       3.94242424       0.00000000       0.00000000      -1.21325767
2
Properties=species:S:1:pos:R:3:forces:R:3 energy=-5.73082771829712 pbc="F F F"
Zr       0.00000000       0.00000000       0.00000000       0.00000000       0.00000000       1.16062546
Zr       0.00000000       0.00000000       4.00121212       0.00000000       0.00000000      -1.16062546
2
Properties=species:S:1:pos:R:3:forces:R:3 energy=-5.664050956474978 pbc="F F F"
Zr       0.00000000       0.00000000       0.00000000       0.00000000       0.00000000       1.11161506
Zr       0.00000000       0.00000000       4.06000000       0.00000000       0.00000000      -1.11161506
2
Properties=species:S:1:pos:R:3:forces:R:3 energy=-5.600086741662362 pbc="F F F"
Zr       0.00000000       0.00000000       0.00000000       0.00000000       0.00000000       1.06476653
Zr       0.00000000       0.00000000       4.11878788       0.00000000       0.00000000      -1.06476653
2
Properties=species:S:1:pos:R:3:forces:R:3 energy=-5.538836306874916 pbc="F F F"
Zr       0.00000000       0.00000000       0.00000000       0.00000000       0.00000000       1.01912463
Zr       0.00000000       0.00000000       4.17757576       0.00000000       0.00000000      -1.01912463
2
Properties=species:S:1:pos:R:3:forces:R:3 energy=-5.480245387711269 pbc="F F F"
Zr       0.00000000       0.00000000       0.00000000       0.00000000       0.00000000       0.97429448
Zr       0.00000000       0.00000000       4.23636364       0.00000000       0.00000000      -0.97429448
2
Properties=species:S:1:pos:R:3:forces:R:3 energy=-5.42426456250553 pbc="F F F"
Zr       0.00000000       0.00000000       0.00000000       0.00000000       0.00000000       0.93036962
Zr       0.00000000       0.00000000       4.29515152       0.00000000       0.00000000      -0.93036962
2
Properties=species:S:1:pos:R:3:forces:R:3 energy=-5.370831392276687 pbc="F F F"
Zr       0.00000000       0.00000000       0.00000000       0.00000000       0.00000000       0.88776815
Zr       0.00000000       0.00000000       4.35393939       0.00000000       0.00000000      -0.88776815
2
Properties=species:S:1:pos:R:3:forces:R:3 energy=-5.3198493638659174 pbc="F F F"
Zr       0.00000000       0.00000000       0.00000000       0.00000000       0.00000000       0.84702468
Zr       0.00000000       0.00000000       4.41272727       0.00000000       0.00000000      -0.84702468
2
Properties=species:S:1:pos:R:3:forces:R:3 energy=-5.271194521307294 pbc="F F F"
Zr       0.00000000       0.00000000       0.00000000       0.00000000       0.00000000       0.80864739
Zr       0.00000000       0.00000000       4.47151515       0.00000000       0.00000000      -0.80864739
2
Properties=species:S:1:pos:R:3:forces:R:3 energy=-5.224717620266545 pbc="F F F"
Zr       0.00000000       0.00000000       0.00000000       0.00000000       0.00000000       0.77299094
Zr       0.00000000       0.00000000       4.53030303       0.00000000       0.00000000      -0.77299094
2
Properties=species:S:1:pos:R:3:forces:R:3 energy=-5.180254854541206 pbc="F F F"
Zr       0.00000000       0.00000000       0.00000000       0.00000000       0.00000000       0.74015158
Zr       0.00000000       0.00000000       4.58909091       0.00000000       0.00000000      -0.74015158
2
Properties=species:S:1:pos:R:3:forces:R:3 energy=-5.137643216219998 pbc="F F F"
Zr       0.00000000       0.00000000       0.00000000       0.00000000       0.00000000       0.70994031
Zr       0.00000000       0.00000000       4.64787879       0.00000000       0.00000000      -0.70994031
2
Properties=species:S:1:pos:R:3:forces:R:3 energy=-5.0967399509716405 pbc="F F F"
Zr       0.00000000       0.00000000       0.00000000       0.00000000       0.00000000       0.68188089
Zr       0.00000000       0.00000000       4.70666667       0.00000000       0.00000000      -0.68188089
2
Properties=species:S:1:pos:R:3:forces:R:3 energy=-5.05744160618861 pbc="F F F"
Zr       0.00000000       0.00000000       0.00000000       0.00000000       0.00000000       0.65524673
Zr       0.00000000       0.00000000       4.76545455       0.00000000       0.00000000      -0.65524673
2
Properties=species:S:1:pos:R:3:forces:R:3 energy=-5.019689143147348 pbc="F F F"
Zr       0.00000000       0.00000000       0.00000000       0.00000000       0.00000000       0.62906361
Zr       0.00000000       0.00000000       4.82424242       0.00000000       0.00000000      -0.62906361
2
Properties=species:S:1:pos:R:3:forces:R:3 energy=-4.983496521895171 pbc="F F F"
Zr       0.00000000       0.00000000       0.00000000       0.00000000       0.00000000       0.60208845
Zr       0.00000000       0.00000000       4.88303030       0.00000000       0.00000000      -0.60208845
2
Properties=species:S:1:pos:R:3:forces:R:3 energy=-4.948942869115131 pbc="F F F"
Zr       0.00000000       0.00000000       0.00000000       0.00000000       0.00000000       0.57287115
Zr       0.00000000       0.00000000       4.94181818       0.00000000       0.00000000      -0.57287115
2
Properties=species:S:1:pos:R:3:forces:R:3 energy=-4.9162091248951 pbc="F F F"
Zr       0.00000000       0.00000000       0.00000000       0.00000000       0.00000000       0.54002959
Zr       0.00000000       0.00000000       5.00060606       0.00000000       0.00000000      -0.54002959
2
Properties=species:S:1:pos:R:3:forces:R:3 energy=-4.885526976802341 pbc="F F F"
Zr       0.00000000       0.00000000       0.00000000       0.00000000       0.00000000       0.50322515
Zr       0.00000000       0.00000000       5.05939394       0.00000000       0.00000000      -0.50322515
2
Properties=species:S:1:pos:R:3:forces:R:3 energy=-4.857072697923455 pbc="F F F"
Zr       0.00000000       0.00000000       0.00000000       0.00000000       0.00000000       0.46498710
Zr       0.00000000       0.00000000       5.11818182       0.00000000       0.00000000      -0.46498710
2
Properties=species:S:1:pos:R:3:forces:R:3 energy=-4.830756868013259 pbc="F F F"
Zr       0.00000000       0.00000000       0.00000000       0.00000000       0.00000000       0.43191347
Zr       0.00000000       0.00000000       5.17696970       0.00000000       0.00000000      -0.43191347
2
Properties=species:S:1:pos:R:3:forces:R:3 energy=-4.806046831680827 pbc="F F F"
Zr       0.00000000       0.00000000       0.00000000       0.00000000       0.00000000       0.41106266
Zr       0.00000000       0.00000000       5.23575758       0.00000000       0.00000000      -0.41106266
2
Properties=species:S:1:pos:R:3:forces:R:3 energy=-4.7822217302414005 pbc="F F F"
Zr       0.00000000       0.00000000       0.00000000       0.00000000       0.00000000       0.40017566
Zr       0.00000000       0.00000000       5.29454545       0.00000000       0.00000000      -0.40017566
2
Properties=species:S:1:pos:R:3:forces:R:3 energy=-4.759102425363994 pbc="F F F"
Zr       0.00000000       0.00000000       0.00000000       0.00000000       0.00000000       0.38386658
Zr       0.00000000       0.00000000       5.35333333       0.00000000       0.00000000      -0.38386658
2
Properties=species:S:1:pos:R:3:forces:R:3 energy=-4.737464783839032 pbc="F F F"
Zr       0.00000000       0.00000000       0.00000000       0.00000000       0.00000000       0.34900722
Zr       0.00000000       0.00000000       5.41212121       0.00000000       0.00000000      -0.34900722
2
Properties=species:S:1:pos:R:3:forces:R:3 energy=-4.718298227475562 pbc="F F F"
Zr       0.00000000       0.00000000       0.00000000       0.00000000       0.00000000       0.30297238
Zr       0.00000000       0.00000000       5.47090909       0.00000000       0.00000000      -0.30297238
2
Properties=species:S:1:pos:R:3:forces:R:3 energy=-4.701582048576063 pbc="F F F"
Zr       0.00000000       0.00000000       0.00000000       0.00000000       0.00000000       0.27004987
Zr       0.00000000       0.00000000       5.52969697       0.00000000       0.00000000      -0.27004987
2
Properties=species:S:1:pos:R:3:forces:R:3 energy=-4.685888656078249 pbc="F F F"
Zr       0.00000000       0.00000000       0.00000000       0.00000000       0.00000000       0.26967379
Zr       0.00000000       0.00000000       5.58848485       0.00000000       0.00000000      -0.26967379
2
Properties=species:S:1:pos:R:3:forces:R:3 energy=-4.669393618026444 pbc="F F F"
Zr       0.00000000       0.00000000       0.00000000       0.00000000       0.00000000       0.29283404
Zr       0.00000000       0.00000000       5.64727273       0.00000000       0.00000000      -0.29283404
2
Properties=species:S:1:pos:R:3:forces:R:3 energy=-4.6517370437678816 pbc="F F F"
Zr       0.00000000       0.00000000       0.00000000       0.00000000       0.00000000       0.30241352
Zr       0.00000000       0.00000000       5.70606061       0.00000000       0.00000000      -0.30241352
2
Properties=species:S:1:pos:R:3:forces:R:3 energy=-4.634689861679069 pbc="F F F"
Zr       0.00000000       0.00000000       0.00000000       0.00000000       0.00000000       0.26853147
Zr       0.00000000       0.00000000       5.76484848       0.00000000       0.00000000      -0.26853147
2
Properties=species:S:1:pos:R:3:forces:R:3 energy=-4.620935566750842 pbc="F F F"
Zr       0.00000000       0.00000000       0.00000000       0.00000000       0.00000000       0.19568455
Zr       0.00000000       0.00000000       5.82363636       0.00000000       0.00000000      -0.19568455
2
Properties=species:S:1:pos:R:3:forces:R:3 energy=-4.61190051014823 pbc="F F F"
Zr       0.00000000       0.00000000       0.00000000       0.00000000       0.00000000       0.11347715
Zr       0.00000000       0.00000000       5.88242424       0.00000000       0.00000000      -0.11347715
2
Properties=species:S:1:pos:R:3:forces:R:3 energy=-4.607186125539212 pbc="F F F"
Zr       0.00000000       0.00000000       0.00000000       0.00000000       0.00000000       0.05162730
Zr       0.00000000       0.00000000       5.94121212       0.00000000       0.00000000      -0.05162730
2
Properties=species:S:1:pos:R:3:forces:R:3 energy=-4.6050610630558495 pbc="F F F"
Zr       0.00000000       0.00000000       0.00000000       0.00000000       0.00000000       0.02814879
Zr       0.00000000       0.00000000       6.00000000       0.00000000       0.00000000      -0.02814879
