2
Properties=species:S:1:pos:R:3:forces:R:3 energy=86386.18572211324 pbc="F F F"
Au       0.00000000       0.00000000       0.00000000       0.00000000       0.00000000 -2187291.50000000
Au       0.00000000       0.00000000       0.10000000       0.00000000       0.00000000 2187291.50000000
2
Properties=species:S:1:pos:R:3:forces:R:3 energy=23818.031425238234 pbc="F F F"
Au       0.00000000       0.00000000       0.00000000       0.00000000       0.00000000 -446176.93750000
Au       0.00000000       0.00000000       0.15959596       0.00000000       0.00000000  446176.93750000
2
Properties=species:S:1:pos:R:3:forces:R:3 energy=8736.153495550734 pbc="F F F"
Au       0.00000000       0.00000000       0.00000000       0.00000000       0.00000000 -132867.51562500
Au       0.00000000       0.00000000       0.21919192       0.00000000       0.00000000  132867.51562500
2
Properties=species:S:1:pos:R:3:forces:R:3 energy=3813.049491644485 pbc="F F F"
Au       0.00000000       0.00000000       0.00000000       0.00000000       0.00000000  -48381.24218750
Au       0.00000000       0.00000000       0.27878788       0.00000000       0.00000000   48381.24218750
2
Properties=species:S:1:pos:R:3:forces:R:3 energy=1919.1660687960903 pbc="F F F"
Au       0.00000000       0.00000000       0.00000000       0.00000000       0.00000000  -19863.74218750
Au       0.00000000       0.00000000       0.33838384       0.00000000       0.00000000   19863.74218750
2
Properties=species:S:1:pos:R:3:forces:R:3 energy=1111.0847699743008 pbc="F F F"
Au       0.00000000       0.00000000       0.00000000       0.00000000       0.00000000   -8885.36621094
Au       0.00000000       0.00000000       0.39797980       0.00000000       0.00000000    8885.36621094
2
Properties=species:S:1:pos:R:3:forces:R:3 energy=737.3261029916167 pbc="F F F"
Au       0.00000000       0.00000000       0.00000000       0.00000000       0.00000000   -4291.45898438
Au       0.00000000       0.00000000       0.45757576       0.00000000       0.00000000    4291.45898438
2
Properties=species:S:1:pos:R:3:forces:R:3 energy=549.9430463763343 pbc="F F F"
Au       0.00000000       0.00000000       0.00000000       0.00000000       0.00000000   -2264.71362305
Au       0.00000000       0.00000000       0.51717172       0.00000000       0.00000000    2264.71362305
2
Properties=species:S:1:pos:R:3:forces:R:3 energy=445.64916213700445 pbc="F F F"
Au       0.00000000       0.00000000       0.00000000       0.00000000       0.00000000   -1357.86901855
Au       0.00000000       0.00000000       0.57676768       0.00000000       0.00000000    1357.86901855
2
Properties=species:S:1:pos:R:3:forces:R:3 energy=377.7399519984506 pbc="F F F"
Au       0.00000000       0.00000000       0.00000000       0.00000000       0.00000000    -982.17138672
Au       0.00000000       0.00000000       0.63636364       0.00000000       0.00000000     982.17138672
2
Properties=species:S:1:pos:R:3:forces:R:3 energy=323.35192109396155 pbc="F F F"
Au       0.00000000       0.00000000       0.00000000       0.00000000       0.00000000    -872.47442627
Au       0.00000000       0.00000000       0.69595960       0.00000000       0.00000000     872.47442627
2
Properties=species:S:1:pos:R:3:forces:R:3 energy=270.271232778958 pbc="F F F"
Au       0.00000000       0.00000000       0.00000000       0.00000000       0.00000000    -933.13134766
Au       0.00000000       0.00000000       0.75555556       0.00000000       0.00000000     933.13134766
2
Properties=species:S:1:pos:R:3:forces:R:3 energy=217.28281444061088 pbc="F F F"
Au       0.00000000       0.00000000       0.00000000       0.00000000       0.00000000    -818.44873047
Au       0.00000000       0.00000000       0.81515152       0.00000000       0.00000000     818.44873047
2
Properties=species:S:1:pos:R:3:forces:R:3 energy=174.00908737207914 pbc="F F F"
Au       0.00000000       0.00000000       0.00000000       0.00000000       0.00000000    -646.76739502
Au       0.00000000       0.00000000       0.87474747       0.00000000       0.00000000     646.76739502
2
Properties=species:S:1:pos:R:3:forces:R:3 energy=138.53490573418532 pbc="F F F"
Au       0.00000000       0.00000000       0.00000000       0.00000000       0.00000000    -544.22363281
Au       0.00000000       0.00000000       0.93434343       0.00000000       0.00000000     544.22363281
2
Properties=species:S:1:pos:R:3:forces:R:3 energy=110.103120831771 pbc="F F F"
Au       0.00000000       0.00000000       0.00000000       0.00000000       0.00000000    -402.26089478
Au       0.00000000       0.00000000       0.99393939       0.00000000       0.00000000     402.26089478
2
Properties=species:S:1:pos:R:3:forces:R:3 energy=90.66663646624771 pbc="F F F"
Au       0.00000000       0.00000000       0.00000000       0.00000000       0.00000000    -255.81340027
Au       0.00000000       0.00000000       1.05353535       0.00000000       0.00000000     255.81340027
2
Properties=species:S:1:pos:R:3:forces:R:3 energy=78.71999006399102 pbc="F F F"
Au       0.00000000       0.00000000       0.00000000       0.00000000       0.00000000    -153.19706726
Au       0.00000000       0.00000000       1.11313131       0.00000000       0.00000000     153.19706726
2
Properties=species:S:1:pos:R:3:forces:R:3 energy=71.62859917516177 pbc="F F F"
Au       0.00000000       0.00000000       0.00000000       0.00000000       0.00000000     -89.81497192
Au       0.00000000       0.00000000       1.17272727       0.00000000       0.00000000      89.81497192
2
Properties=species:S:1:pos:R:3:forces:R:3 energy=66.3658907199779 pbc="F F F"
Au       0.00000000       0.00000000       0.00000000       0.00000000       0.00000000    -101.24739838
Au       0.00000000       0.00000000       1.23232323       0.00000000       0.00000000     101.24739838
2
Properties=species:S:1:pos:R:3:forces:R:3 energy=58.917067608123304 pbc="F F F"
Au       0.00000000       0.00000000       0.00000000       0.00000000       0.00000000    -147.67950439
Au       0.00000000       0.00000000       1.29191919       0.00000000       0.00000000     147.67950439
2
Properties=species:S:1:pos:R:3:forces:R:3 energy=49.059443192397104 pbc="F F F"
Au       0.00000000       0.00000000       0.00000000       0.00000000       0.00000000    -178.49417114
Au       0.00000000       0.00000000       1.35151515       0.00000000       0.00000000     178.49417114
2
Properties=species:S:1:pos:R:3:forces:R:3 energy=38.795413267408854 pbc="F F F"
Au       0.00000000       0.00000000       0.00000000       0.00000000       0.00000000    -155.90623474
Au       0.00000000       0.00000000       1.41111111       0.00000000       0.00000000     155.90623474
2
Properties=species:S:1:pos:R:3:forces:R:3 energy=30.544045399704746 pbc="F F F"
Au       0.00000000       0.00000000       0.00000000       0.00000000       0.00000000    -127.31790924
Au       0.00000000       0.00000000       1.47070707       0.00000000       0.00000000     127.31790924
2
Properties=species:S:1:pos:R:3:forces:R:3 energy=23.44330785537989 pbc="F F F"
Au       0.00000000       0.00000000       0.00000000       0.00000000       0.00000000    -105.84745789
Au       0.00000000       0.00000000       1.53030303       0.00000000       0.00000000     105.84745789
2
Properties=species:S:1:pos:R:3:forces:R:3 energy=18.258968913664937 pbc="F F F"
Au       0.00000000       0.00000000       0.00000000       0.00000000       0.00000000     -70.88838959
Au       0.00000000       0.00000000       1.58989899       0.00000000       0.00000000      70.88838959
2
Properties=species:S:1:pos:R:3:forces:R:3 energy=14.488522606728187 pbc="F F F"
Au       0.00000000       0.00000000       0.00000000       0.00000000       0.00000000     -58.55775833
Au       0.00000000       0.00000000       1.64949495       0.00000000       0.00000000      58.55775833
2
Properties=species:S:1:pos:R:3:forces:R:3 energy=11.158693103542728 pbc="F F F"
Au       0.00000000       0.00000000       0.00000000       0.00000000       0.00000000     -53.06632233
Au       0.00000000       0.00000000       1.70909091       0.00000000       0.00000000      53.06632233
2
Properties=species:S:1:pos:R:3:forces:R:3 energy=8.203933759960252 pbc="F F F"
Au       0.00000000       0.00000000       0.00000000       0.00000000       0.00000000     -45.81162262
Au       0.00000000       0.00000000       1.76868687       0.00000000       0.00000000      45.81162262
2
Properties=species:S:1:pos:R:3:forces:R:3 energy=5.712415977207556 pbc="F F F"
Au       0.00000000       0.00000000       0.00000000       0.00000000       0.00000000     -37.82525635
Au       0.00000000       0.00000000       1.82828283       0.00000000       0.00000000      37.82525635
2
Properties=species:S:1:pos:R:3:forces:R:3 energy=3.6827967100864987 pbc="F F F"
Au       0.00000000       0.00000000       0.00000000       0.00000000       0.00000000     -30.44440079
Au       0.00000000       0.00000000       1.88787879       0.00000000       0.00000000      30.44440079
2
Properties=species:S:1:pos:R:3:forces:R:3 energy=2.0628050549797314 pbc="F F F"
Au       0.00000000       0.00000000       0.00000000       0.00000000       0.00000000     -24.10193062
Au       0.00000000       0.00000000       1.94747475       0.00000000       0.00000000      24.10193062
2
Properties=species:S:1:pos:R:3:forces:R:3 energy=0.7892084449645029 pbc="F F F"
Au       0.00000000       0.00000000       0.00000000       0.00000000       0.00000000     -18.80400848
Au       0.00000000       0.00000000       2.00707071       0.00000000       0.00000000      18.80400848
2
Properties=species:S:1:pos:R:3:forces:R:3 energy=-0.19655659540129675 pbc="F F F"
Au       0.00000000       0.00000000       0.00000000       0.00000000       0.00000000     -14.41535091
Au       0.00000000       0.00000000       2.06666667       0.00000000       0.00000000      14.41535091
2
Properties=species:S:1:pos:R:3:forces:R:3 energy=-0.9437943360447457 pbc="F F F"
Au       0.00000000       0.00000000       0.00000000       0.00000000       0.00000000     -10.77324104
Au       0.00000000       0.00000000       2.12626263       0.00000000       0.00000000      10.77324104
2
Properties=species:S:1:pos:R:3:forces:R:3 energy=-1.492860216726448 pbc="F F F"
Au       0.00000000       0.00000000       0.00000000       0.00000000       0.00000000      -7.74821472
Au       0.00000000       0.00000000       2.18585859       0.00000000       0.00000000       7.74821472
2
Properties=species:S:1:pos:R:3:forces:R:3 energy=-1.8781032512127023 pbc="F F F"
Au       0.00000000       0.00000000       0.00000000       0.00000000       0.00000000      -5.26765108
Au       0.00000000       0.00000000       2.24545455       0.00000000       0.00000000       5.26765108
2
Properties=species:S:1:pos:R:3:forces:R:3 energy=-2.1308701587469545 pbc="F F F"
Au       0.00000000       0.00000000       0.00000000       0.00000000       0.00000000      -3.29803205
Au       0.00000000       0.00000000       2.30505051       0.00000000       0.00000000       3.29803205
2
Properties=species:S:1:pos:R:3:forces:R:3 energy=-2.2807464827035813 pbc="F F F"
Au       0.00000000       0.00000000       0.00000000       0.00000000       0.00000000      -1.80796218
Au       0.00000000       0.00000000       2.36464646       0.00000000       0.00000000       1.80796218
2
Properties=species:S:1:pos:R:3:forces:R:3 energy=-2.3548373019096274 pbc="F F F"
Au       0.00000000       0.00000000       0.00000000       0.00000000       0.00000000      -0.74350107
Au       0.00000000       0.00000000       2.42424242       0.00000000       0.00000000       0.74350107
2
Properties=species:S:1:pos:R:3:forces:R:3 energy=-2.3762813533748197 pbc="F F F"
Au       0.00000000       0.00000000       0.00000000       0.00000000       0.00000000      -0.02681589
Au       0.00000000       0.00000000       2.48383838       0.00000000       0.00000000       0.02681589
2
Properties=species:S:1:pos:R:3:forces:R:3 energy=-2.363193755935108 pbc="F F F"
Au       0.00000000       0.00000000       0.00000000       0.00000000       0.00000000       0.42986959
Au       0.00000000       0.00000000       2.54343434       0.00000000       0.00000000      -0.42986959
2
Properties=species:S:1:pos:R:3:forces:R:3 energy=-2.328582590596545 pbc="F F F"
Au       0.00000000       0.00000000       0.00000000       0.00000000       0.00000000       0.70784032
Au       0.00000000       0.00000000       2.60303030       0.00000000       0.00000000      -0.70784032
2
Properties=species:S:1:pos:R:3:forces:R:3 energy=-2.281084049392934 pbc="F F F"
Au       0.00000000       0.00000000       0.00000000       0.00000000       0.00000000       0.87136137
Au       0.00000000       0.00000000       2.66262626       0.00000000       0.00000000      -0.87136137
2
Properties=species:S:1:pos:R:3:forces:R:3 energy=-2.226093479302184 pbc="F F F"
Au       0.00000000       0.00000000       0.00000000       0.00000000       0.00000000       0.96538723
Au       0.00000000       0.00000000       2.72222222       0.00000000       0.00000000      -0.96538723
2
Properties=species:S:1:pos:R:3:forces:R:3 energy=-2.1668077397951087 pbc="F F F"
Au       0.00000000       0.00000000       0.00000000       0.00000000       0.00000000       1.01941121
Au       0.00000000       0.00000000       2.78181818       0.00000000       0.00000000      -1.01941121
2
Properties=species:S:1:pos:R:3:forces:R:3 energy=-2.104990430800282 pbc="F F F"
Au       0.00000000       0.00000000       0.00000000       0.00000000       0.00000000       1.05298173
Au       0.00000000       0.00000000       2.84141414       0.00000000       0.00000000      -1.05298173
2
Properties=species:S:1:pos:R:3:forces:R:3 energy=-2.041437703730446 pbc="F F F"
Au       0.00000000       0.00000000       0.00000000       0.00000000       0.00000000       1.07952416
Au       0.00000000       0.00000000       2.90101010       0.00000000       0.00000000      -1.07952416
2
Properties=species:S:1:pos:R:3:forces:R:3 energy=-1.9762805132005767 pbc="F F F"
Au       0.00000000       0.00000000       0.00000000       0.00000000       0.00000000       1.10789895
Au       0.00000000       0.00000000       2.96060606       0.00000000       0.00000000      -1.10789895
2
Properties=species:S:1:pos:R:3:forces:R:3 energy=-1.909255516236088 pbc="F F F"
Au       0.00000000       0.00000000       0.00000000       0.00000000       0.00000000       1.14254010
Au       0.00000000       0.00000000       3.02020202       0.00000000       0.00000000      -1.14254010
2
Properties=species:S:1:pos:R:3:forces:R:3 energy=-1.839981486457528 pbc="F F F"
Au       0.00000000       0.00000000       0.00000000       0.00000000       0.00000000       1.18297708
Au       0.00000000       0.00000000       3.07979798       0.00000000       0.00000000      -1.18297708
2
Properties=species:S:1:pos:R:3:forces:R:3 energy=-1.768221392347376 pbc="F F F"
Au       0.00000000       0.00000000       0.00000000       0.00000000       0.00000000       1.22510242
Au       0.00000000       0.00000000       3.13939394       0.00000000       0.00000000      -1.22510242
2
Properties=species:S:1:pos:R:3:forces:R:3 energy=-1.6940175567527882 pbc="F F F"
Au       0.00000000       0.00000000       0.00000000       0.00000000       0.00000000       1.26432765
Au       0.00000000       0.00000000       3.19898990       0.00000000       0.00000000      -1.26432765
2
Properties=species:S:1:pos:R:3:forces:R:3 energy=-1.6176494564412356 pbc="F F F"
Au       0.00000000       0.00000000       0.00000000       0.00000000       0.00000000       1.29723346
Au       0.00000000       0.00000000       3.25858586       0.00000000       0.00000000      -1.29723346
2
Properties=species:S:1:pos:R:3:forces:R:3 energy=-1.539575601062946 pbc="F F F"
Au       0.00000000       0.00000000       0.00000000       0.00000000       0.00000000       1.32117975
Au       0.00000000       0.00000000       3.31818182       0.00000000       0.00000000      -1.32117975
2
Properties=species:S:1:pos:R:3:forces:R:3 energy=-1.4604069675563436 pbc="F F F"
Au       0.00000000       0.00000000       0.00000000       0.00000000       0.00000000       1.33348966
Au       0.00000000       0.00000000       3.37777778       0.00000000       0.00000000      -1.33348966
2
Properties=species:S:1:pos:R:3:forces:R:3 energy=-1.380923437190766 pbc="F F F"
Au       0.00000000       0.00000000       0.00000000       0.00000000       0.00000000       1.33126247
Au       0.00000000       0.00000000       3.43737374       0.00000000       0.00000000      -1.33126247
2
Properties=species:S:1:pos:R:3:forces:R:3 energy=-1.302071090119169 pbc="F F F"
Au       0.00000000       0.00000000       0.00000000       0.00000000       0.00000000       1.31193042
Au       0.00000000       0.00000000       3.49696970       0.00000000       0.00000000      -1.31193042
2
Properties=species:S:1:pos:R:3:forces:R:3 energy=-1.2249191319951487 pbc="F F F"
Au       0.00000000       0.00000000       0.00000000       0.00000000       0.00000000       1.27413833
Au       0.00000000       0.00000000       3.55656566       0.00000000       0.00000000      -1.27413833
2
Properties=species:S:1:pos:R:3:forces:R:3 energy=-1.1505631670660506 pbc="F F F"
Au       0.00000000       0.00000000       0.00000000       0.00000000       0.00000000       1.21836329
Au       0.00000000       0.00000000       3.61616162       0.00000000       0.00000000      -1.21836329
2
Properties=species:S:1:pos:R:3:forces:R:3 energy=-1.0800135325869014 pbc="F F F"
Au       0.00000000       0.00000000       0.00000000       0.00000000       0.00000000       1.14691854
Au       0.00000000       0.00000000       3.67575758       0.00000000       0.00000000      -1.14691854
2
Properties=species:S:1:pos:R:3:forces:R:3 energy=-1.0140987407998598 pbc="F F F"
Au       0.00000000       0.00000000       0.00000000       0.00000000       0.00000000       1.06346858
Au       0.00000000       0.00000000       3.73535354       0.00000000       0.00000000      -1.06346858
2
Properties=species:S:1:pos:R:3:forces:R:3 energy=-0.9534087990048667 pbc="F F F"
Au       0.00000000       0.00000000       0.00000000       0.00000000       0.00000000       0.97231561
Au       0.00000000       0.00000000       3.79494949       0.00000000       0.00000000      -0.97231561
2
Properties=species:S:1:pos:R:3:forces:R:3 energy=-0.8982734196022348 pbc="F F F"
Au       0.00000000       0.00000000       0.00000000       0.00000000       0.00000000       0.87776941
Au       0.00000000       0.00000000       3.85454545       0.00000000       0.00000000      -0.87776941
2
Properties=species:S:1:pos:R:3:forces:R:3 energy=-0.8487756122875617 pbc="F F F"
Au       0.00000000       0.00000000       0.00000000       0.00000000       0.00000000       0.78374439
Au       0.00000000       0.00000000       3.91414141       0.00000000       0.00000000      -0.78374439
2
Properties=species:S:1:pos:R:3:forces:R:3 energy=-0.8047806671642251 pbc="F F F"
Au       0.00000000       0.00000000       0.00000000       0.00000000       0.00000000       0.69355977
Au       0.00000000       0.00000000       3.97373737       0.00000000       0.00000000      -0.69355977
2
Properties=species:S:1:pos:R:3:forces:R:3 energy=-0.7659791962165314 pbc="F F F"
Au       0.00000000       0.00000000       0.00000000       0.00000000       0.00000000       0.60987180
Au       0.00000000       0.00000000       4.03333333       0.00000000       0.00000000      -0.60987180
2
Properties=species:S:1:pos:R:3:forces:R:3 energy=-0.7319208790421248 pbc="F F F"
Au       0.00000000       0.00000000       0.00000000       0.00000000       0.00000000       0.53462625
Au       0.00000000       0.00000000       4.09292929       0.00000000       0.00000000      -0.53462625
2
Properties=species:S:1:pos:R:3:forces:R:3 energy=-0.702062961441925 pbc="F F F"
Au       0.00000000       0.00000000       0.00000000       0.00000000       0.00000000       0.46905088
Au       0.00000000       0.00000000       4.15252525       0.00000000       0.00000000      -0.46905088
2
Properties=species:S:1:pos:R:3:forces:R:3 energy=-0.6758110687626888 pbc="F F F"
Au       0.00000000       0.00000000       0.00000000       0.00000000       0.00000000       0.41366541
Au       0.00000000       0.00000000       4.21212121       0.00000000       0.00000000      -0.41366541
2
Properties=species:S:1:pos:R:3:forces:R:3 energy=-0.6525573960512234 pbc="F F F"
Au       0.00000000       0.00000000       0.00000000       0.00000000       0.00000000       0.36833659
Au       0.00000000       0.00000000       4.27171717       0.00000000       0.00000000      -0.36833659
2
Properties=species:S:1:pos:R:3:forces:R:3 energy=-0.6317213952680372 pbc="F F F"
Au       0.00000000       0.00000000       0.00000000       0.00000000       0.00000000       0.33240181
Au       0.00000000       0.00000000       4.33131313       0.00000000       0.00000000      -0.33240181
2
Properties=species:S:1:pos:R:3:forces:R:3 energy=-0.6127719818932876 pbc="F F F"
Au       0.00000000       0.00000000       0.00000000       0.00000000       0.00000000       0.30481833
Au       0.00000000       0.00000000       4.39090909       0.00000000       0.00000000      -0.30481833
2
Properties=species:S:1:pos:R:3:forces:R:3 energy=-0.5952486122123012 pbc="F F F"
Au       0.00000000       0.00000000       0.00000000       0.00000000       0.00000000       0.28430721
Au       0.00000000       0.00000000       4.45050505       0.00000000       0.00000000      -0.28430721
2
Properties=species:S:1:pos:R:3:forces:R:3 energy=-0.5787733507962645 pbc="F F F"
Au       0.00000000       0.00000000       0.00000000       0.00000000       0.00000000       0.26940838
Au       0.00000000       0.00000000       4.51010101       0.00000000       0.00000000      -0.26940838
2
Properties=species:S:1:pos:R:3:forces:R:3 energy=-0.563058197537758 pbc="F F F"
Au       0.00000000       0.00000000       0.00000000       0.00000000       0.00000000       0.25847769
Au       0.00000000       0.00000000       4.56969697       0.00000000       0.00000000      -0.25847769
2
Properties=species:S:1:pos:R:3:forces:R:3 energy=-0.5479222912183407 pbc="F F F"
Au       0.00000000       0.00000000       0.00000000       0.00000000       0.00000000       0.24966748
Au       0.00000000       0.00000000       4.62929293       0.00000000       0.00000000      -0.24966748
2
Properties=species:S:1:pos:R:3:forces:R:3 energy=-0.5332972305770052 pbc="F F F"
Au       0.00000000       0.00000000       0.00000000       0.00000000       0.00000000       0.24100828
Au       0.00000000       0.00000000       4.68888889       0.00000000       0.00000000      -0.24100828
2
Properties=species:S:1:pos:R:3:forces:R:3 energy=-0.5192301075194289 pbc="F F F"
Au       0.00000000       0.00000000       0.00000000       0.00000000       0.00000000       0.23064923
Au       0.00000000       0.00000000       4.74848485       0.00000000       0.00000000      -0.23064923
2
Properties=species:S:1:pos:R:3:forces:R:3 energy=-0.5058662992146143 pbc="F F F"
Au       0.00000000       0.00000000       0.00000000       0.00000000       0.00000000       0.21728171
Au       0.00000000       0.00000000       4.80808081       0.00000000       0.00000000      -0.21728171
2
Properties=species:S:1:pos:R:3:forces:R:3 energy=-0.49339859165480476 pbc="F F F"
Au       0.00000000       0.00000000       0.00000000       0.00000000       0.00000000       0.20060311
Au       0.00000000       0.00000000       4.86767677       0.00000000       0.00000000      -0.20060311
2
Properties=species:S:1:pos:R:3:forces:R:3 energy=-0.4820018990222021 pbc="F F F"
Au       0.00000000       0.00000000       0.00000000       0.00000000       0.00000000       0.18162933
Au       0.00000000       0.00000000       4.92727273       0.00000000       0.00000000      -0.18162933
2
Properties=species:S:1:pos:R:3:forces:R:3 energy=-0.4717515365095015 pbc="F F F"
Au       0.00000000       0.00000000       0.00000000       0.00000000       0.00000000       0.16258591
Au       0.00000000       0.00000000       4.98686869       0.00000000       0.00000000      -0.16258591
2
Properties=species:S:1:pos:R:3:forces:R:3 energy=-0.4625698589076829 pbc="F F F"
Au       0.00000000       0.00000000       0.00000000       0.00000000       0.00000000       0.14624937
Au       0.00000000       0.00000000       5.04646465       0.00000000       0.00000000      -0.14624937
2
Properties=species:S:1:pos:R:3:forces:R:3 energy=-0.454223093348294 pbc="F F F"
Au       0.00000000       0.00000000       0.00000000       0.00000000       0.00000000       0.13475779
Au       0.00000000       0.00000000       5.10606061       0.00000000       0.00000000      -0.13475779
2
Properties=species:S:1:pos:R:3:forces:R:3 energy=-0.44640486500169024 pbc="F F F"
Au       0.00000000       0.00000000       0.00000000       0.00000000       0.00000000       0.12828462
Au       0.00000000       0.00000000       5.16565657       0.00000000       0.00000000      -0.12828462
2
Properties=species:S:1:pos:R:3:forces:R:3 energy=-0.4388810867570047 pbc="F F F"
Au       0.00000000       0.00000000       0.00000000       0.00000000       0.00000000       0.12429386
Au       0.00000000       0.00000000       5.22525253       0.00000000       0.00000000      -0.12429386
2
Properties=species:S:1:pos:R:3:forces:R:3 energy=-0.43162575444205764 pbc="F F F"
Au       0.00000000       0.00000000       0.00000000       0.00000000       0.00000000       0.11861328
Au       0.00000000       0.00000000       5.28484848       0.00000000       0.00000000      -0.11861328
2
Properties=species:S:1:pos:R:3:forces:R:3 energy=-0.424812932166521 pbc="F F F"
Au       0.00000000       0.00000000       0.00000000       0.00000000       0.00000000       0.10975085
Au       0.00000000       0.00000000       5.34444444       0.00000000       0.00000000      -0.10975085
2
Properties=species:S:1:pos:R:3:forces:R:3 energy=-0.41847312629308764 pbc="F F F"
Au       0.00000000       0.00000000       0.00000000       0.00000000       0.00000000       0.10461289
Au       0.00000000       0.00000000       5.40404040       0.00000000       0.00000000      -0.10461289
2
Properties=species:S:1:pos:R:3:forces:R:3 energy=-0.41209665216449043 pbc="F F F"
Au       0.00000000       0.00000000       0.00000000       0.00000000       0.00000000       0.11084802
Au       0.00000000       0.00000000       5.46363636       0.00000000       0.00000000      -0.11084802
2
Properties=species:S:1:pos:R:3:forces:R:3 energy=-0.40531868641700436 pbc="F F F"
Au       0.00000000       0.00000000       0.00000000       0.00000000       0.00000000       0.11422321
Au       0.00000000       0.00000000       5.52323232       0.00000000       0.00000000      -0.11422321
2
Properties=species:S:1:pos:R:3:forces:R:3 energy=-0.39885461712035014 pbc="F F F"
Au       0.00000000       0.00000000       0.00000000       0.00000000       0.00000000       0.10026936
Au       0.00000000       0.00000000       5.58282828       0.00000000       0.00000000      -0.10026936
2
Properties=species:S:1:pos:R:3:forces:R:3 energy=-0.39344438433016615 pbc="F F F"
Au       0.00000000       0.00000000       0.00000000       0.00000000       0.00000000       0.08249006
Au       0.00000000       0.00000000       5.64242424       0.00000000       0.00000000      -0.08249006
2
Properties=species:S:1:pos:R:3:forces:R:3 energy=-0.3887461612361752 pbc="F F F"
Au       0.00000000       0.00000000       0.00000000       0.00000000       0.00000000       0.07756042
Au       0.00000000       0.00000000       5.70202020       0.00000000       0.00000000      -0.07756042
2
Properties=species:S:1:pos:R:3:forces:R:3 energy=-0.3841027987020061 pbc="F F F"
Au       0.00000000       0.00000000       0.00000000       0.00000000       0.00000000       0.07688090
Au       0.00000000       0.00000000       5.76161616       0.00000000       0.00000000      -0.07688090
2
Properties=species:S:1:pos:R:3:forces:R:3 energy=-0.37996645617882613 pbc="F F F"
Au       0.00000000       0.00000000       0.00000000       0.00000000       0.00000000       0.05854408
Au       0.00000000       0.00000000       5.82121212       0.00000000       0.00000000      -0.05854408
2
Properties=species:S:1:pos:R:3:forces:R:3 energy=-0.3773098244404039 pbc="F F F"
Au       0.00000000       0.00000000       0.00000000       0.00000000       0.00000000       0.03131246
Au       0.00000000       0.00000000       5.88080808       0.00000000       0.00000000      -0.03131246
2
Properties=species:S:1:pos:R:3:forces:R:3 energy=-0.3760526647473066 pbc="F F F"
Au       0.00000000       0.00000000       0.00000000       0.00000000       0.00000000       0.01250083
Au       0.00000000       0.00000000       5.94040404       0.00000000       0.00000000      -0.01250083
2
Properties=species:S:1:pos:R:3:forces:R:3 energy=-0.37557184608423094 pbc="F F F"
Au       0.00000000       0.00000000       0.00000000       0.00000000       0.00000000       0.00582827
Au       0.00000000       0.00000000       6.00000000       0.00000000       0.00000000      -0.00582827
