2
Properties=species:S:1:pos:R:3:forces:R:3 energy=50476.30539589838 pbc="F F F"
Ba       0.00000000       0.00000000       0.00000000       0.00000000       0.00000000 -1233291.25000000
Ba       0.00000000       0.00000000       0.10000000       0.00000000       0.00000000 1233291.25000000
2
Properties=species:S:1:pos:R:3:forces:R:3 energy=14495.686255273382 pbc="F F F"
Ba       0.00000000       0.00000000       0.00000000       0.00000000       0.00000000 -264047.84375000
Ba       0.00000000       0.00000000       0.15959596       0.00000000       0.00000000  264047.84375000
2
Properties=species:S:1:pos:R:3:forces:R:3 energy=5433.283911523382 pbc="F F F"
Ba       0.00000000       0.00000000       0.00000000       0.00000000       0.00000000  -81614.15625000
Ba       0.00000000       0.00000000       0.21919192       0.00000000       0.00000000   81614.15625000
2
Properties=species:S:1:pos:R:3:forces:R:3 energy=2361.655493554632 pbc="F F F"
Ba       0.00000000       0.00000000       0.00000000       0.00000000       0.00000000  -30860.58789062
Ba       0.00000000       0.00000000       0.27878788       0.00000000       0.00000000   30860.58789062
2
Properties=species:S:1:pos:R:3:forces:R:3 energy=1133.5992191405696 pbc="F F F"
Ba       0.00000000       0.00000000       0.00000000       0.00000000       0.00000000  -13161.43359375
Ba       0.00000000       0.00000000       0.33838384       0.00000000       0.00000000   13161.43359375
2
Properties=species:S:1:pos:R:3:forces:R:3 energy=590.1285770507259 pbc="F F F"
Ba       0.00000000       0.00000000       0.00000000       0.00000000       0.00000000   -6082.00781250
Ba       0.00000000       0.00000000       0.39797980       0.00000000       0.00000000    6082.00781250
2
Properties=species:S:1:pos:R:3:forces:R:3 energy=331.9021366210384 pbc="F F F"
Ba       0.00000000       0.00000000       0.00000000       0.00000000       0.00000000   -2987.13598633
Ba       0.00000000       0.00000000       0.45757576       0.00000000       0.00000000    2987.13598633
2
Properties=species:S:1:pos:R:3:forces:R:3 energy=202.08310586565526 pbc="F F F"
Ba       0.00000000       0.00000000       0.00000000       0.00000000       0.00000000   -1544.40405273
Ba       0.00000000       0.00000000       0.51717172       0.00000000       0.00000000    1544.40405273
2
Properties=species:S:1:pos:R:3:forces:R:3 energy=133.5451572699281 pbc="F F F"
Ba       0.00000000       0.00000000       0.00000000       0.00000000       0.00000000    -836.09765625
Ba       0.00000000       0.00000000       0.57676768       0.00000000       0.00000000     836.09765625
2
Properties=species:S:1:pos:R:3:forces:R:3 energy=95.71003613414987 pbc="F F F"
Ba       0.00000000       0.00000000       0.00000000       0.00000000       0.00000000    -472.43414307
Ba       0.00000000       0.00000000       0.63636364       0.00000000       0.00000000     472.43414307
2
Properties=species:S:1:pos:R:3:forces:R:3 energy=73.92478072736355 pbc="F F F"
Ba       0.00000000       0.00000000       0.00000000       0.00000000       0.00000000    -278.24002075
Ba       0.00000000       0.00000000       0.69595960       0.00000000       0.00000000     278.24002075
2
Properties=species:S:1:pos:R:3:forces:R:3 energy=60.84291736839275 pbc="F F F"
Ba       0.00000000       0.00000000       0.00000000       0.00000000       0.00000000    -171.08013916
Ba       0.00000000       0.00000000       0.75555556       0.00000000       0.00000000     171.08013916
2
Properties=species:S:1:pos:R:3:forces:R:3 energy=52.619391424436984 pbc="F F F"
Ba       0.00000000       0.00000000       0.00000000       0.00000000       0.00000000    -110.55061340
Ba       0.00000000       0.00000000       0.81515152       0.00000000       0.00000000     110.55061340
2
Properties=species:S:1:pos:R:3:forces:R:3 energy=47.15462406341696 pbc="F F F"
Ba       0.00000000       0.00000000       0.00000000       0.00000000       0.00000000     -76.07883453
Ba       0.00000000       0.00000000       0.87474747       0.00000000       0.00000000      76.07883453
2
Properties=species:S:1:pos:R:3:forces:R:3 energy=43.252867897173104 pbc="F F F"
Ba       0.00000000       0.00000000       0.00000000       0.00000000       0.00000000     -56.78674698
Ba       0.00000000       0.00000000       0.93434343       0.00000000       0.00000000      56.78674698
2
Properties=species:S:1:pos:R:3:forces:R:3 energy=40.20510806480552 pbc="F F F"
Ba       0.00000000       0.00000000       0.00000000       0.00000000       0.00000000     -46.68476868
Ba       0.00000000       0.00000000       0.99393939       0.00000000       0.00000000      46.68476868
2
Properties=species:S:1:pos:R:3:forces:R:3 energy=37.57524836857231 pbc="F F F"
Ba       0.00000000       0.00000000       0.00000000       0.00000000       0.00000000     -42.32544708
Ba       0.00000000       0.00000000       1.05353535       0.00000000       0.00000000      42.32544708
2
Properties=species:S:1:pos:R:3:forces:R:3 energy=35.0875472693389 pbc="F F F"
Ba       0.00000000       0.00000000       0.00000000       0.00000000       0.00000000     -41.65407181
Ba       0.00000000       0.00000000       1.11313131       0.00000000       0.00000000      41.65407181
2
Properties=species:S:1:pos:R:3:forces:R:3 energy=32.56193581005002 pbc="F F F"
Ba       0.00000000       0.00000000       0.00000000       0.00000000       0.00000000     -43.43815231
Ba       0.00000000       0.00000000       1.17272727       0.00000000       0.00000000      43.43815231
2
Properties=species:S:1:pos:R:3:forces:R:3 energy=29.87777230133857 pbc="F F F"
Ba       0.00000000       0.00000000       0.00000000       0.00000000       0.00000000     -46.84225464
Ba       0.00000000       0.00000000       1.23232323       0.00000000       0.00000000      46.84225464
2
Properties=species:S:1:pos:R:3:forces:R:3 energy=26.964917830937082 pbc="F F F"
Ba       0.00000000       0.00000000       0.00000000       0.00000000       0.00000000     -50.92852783
Ba       0.00000000       0.00000000       1.29191919       0.00000000       0.00000000      50.92852783
2
Properties=species:S:1:pos:R:3:forces:R:3 energy=23.817160234040564 pbc="F F F"
Ba       0.00000000       0.00000000       0.00000000       0.00000000       0.00000000     -54.53712082
Ba       0.00000000       0.00000000       1.35151515       0.00000000       0.00000000      54.53712082
2
Properties=species:S:1:pos:R:3:forces:R:3 energy=20.495698705217087 pbc="F F F"
Ba       0.00000000       0.00000000       0.00000000       0.00000000       0.00000000     -56.56263351
Ba       0.00000000       0.00000000       1.41111111       0.00000000       0.00000000      56.56263351
2
Properties=species:S:1:pos:R:3:forces:R:3 energy=17.13418883691186 pbc="F F F"
Ba       0.00000000       0.00000000       0.00000000       0.00000000       0.00000000     -55.63071823
Ba       0.00000000       0.00000000       1.47070707       0.00000000       0.00000000      55.63071823
2
Properties=species:S:1:pos:R:3:forces:R:3 energy=13.945544224671854 pbc="F F F"
Ba       0.00000000       0.00000000       0.00000000       0.00000000       0.00000000     -50.71554565
Ba       0.00000000       0.00000000       1.53030303       0.00000000       0.00000000      50.71554565
2
Properties=species:S:1:pos:R:3:forces:R:3 energy=11.152080682108691 pbc="F F F"
Ba       0.00000000       0.00000000       0.00000000       0.00000000       0.00000000     -42.70761871
Ba       0.00000000       0.00000000       1.58989899       0.00000000       0.00000000      42.70761871
2
Properties=species:S:1:pos:R:3:forces:R:3 energy=8.865580378231645 pbc="F F F"
Ba       0.00000000       0.00000000       0.00000000       0.00000000       0.00000000     -34.14772797
Ba       0.00000000       0.00000000       1.64949495       0.00000000       0.00000000      34.14772797
2
Properties=species:S:1:pos:R:3:forces:R:3 energy=7.05245305328905 pbc="F F F"
Ba       0.00000000       0.00000000       0.00000000       0.00000000       0.00000000     -27.00533867
Ba       0.00000000       0.00000000       1.70909091       0.00000000       0.00000000      27.00533867
2
Properties=species:S:1:pos:R:3:forces:R:3 energy=5.61300551664702 pbc="F F F"
Ba       0.00000000       0.00000000       0.00000000       0.00000000       0.00000000     -21.53176117
Ba       0.00000000       0.00000000       1.76868687       0.00000000       0.00000000      21.53176117
2
Properties=species:S:1:pos:R:3:forces:R:3 energy=4.464928121432892 pbc="F F F"
Ba       0.00000000       0.00000000       0.00000000       0.00000000       0.00000000     -17.14826202
Ba       0.00000000       0.00000000       1.82828283       0.00000000       0.00000000      17.14826202
2
Properties=species:S:1:pos:R:3:forces:R:3 energy=3.5485600891351394 pbc="F F F"
Ba       0.00000000       0.00000000       0.00000000       0.00000000       0.00000000     -13.80740833
Ba       0.00000000       0.00000000       1.88787879       0.00000000       0.00000000      13.80740833
2
Properties=species:S:1:pos:R:3:forces:R:3 energy=2.7952040939214817 pbc="F F F"
Ba       0.00000000       0.00000000       0.00000000       0.00000000       0.00000000     -11.63980007
Ba       0.00000000       0.00000000       1.94747475       0.00000000       0.00000000      11.63980007
2
Properties=species:S:1:pos:R:3:forces:R:3 energy=2.149610094658126 pbc="F F F"
Ba       0.00000000       0.00000000       0.00000000       0.00000000       0.00000000     -10.05484200
Ba       0.00000000       0.00000000       2.00707071       0.00000000       0.00000000      10.05484200
2
Properties=species:S:1:pos:R:3:forces:R:3 energy=1.5984144178760218 pbc="F F F"
Ba       0.00000000       0.00000000       0.00000000       0.00000000       0.00000000      -8.41205311
Ba       0.00000000       0.00000000       2.06666667       0.00000000       0.00000000       8.41205311
2
Properties=species:S:1:pos:R:3:forces:R:3 energy=1.1480535889346362 pbc="F F F"
Ba       0.00000000       0.00000000       0.00000000       0.00000000       0.00000000      -6.73344612
Ba       0.00000000       0.00000000       2.12626263       0.00000000       0.00000000       6.73344612
2
Properties=species:S:1:pos:R:3:forces:R:3 energy=0.7862315981047139 pbc="F F F"
Ba       0.00000000       0.00000000       0.00000000       0.00000000       0.00000000      -5.53035212
Ba       0.00000000       0.00000000       2.18585859       0.00000000       0.00000000       5.53035212
2
Properties=species:S:1:pos:R:3:forces:R:3 energy=0.4725081140822423 pbc="F F F"
Ba       0.00000000       0.00000000       0.00000000       0.00000000       0.00000000      -5.13290596
Ba       0.00000000       0.00000000       2.24545455       0.00000000       0.00000000       5.13290596
2
Properties=species:S:1:pos:R:3:forces:R:3 energy=0.16116326454758412 pbc="F F F"
Ba       0.00000000       0.00000000       0.00000000       0.00000000       0.00000000      -5.39537287
Ba       0.00000000       0.00000000       2.30505051       0.00000000       0.00000000       5.39537287
2
Properties=species:S:1:pos:R:3:forces:R:3 energy=-0.17596708382275633 pbc="F F F"
Ba       0.00000000       0.00000000       0.00000000       0.00000000       0.00000000      -5.93122244
Ba       0.00000000       0.00000000       2.36464646       0.00000000       0.00000000       5.93122244
2
Properties=species:S:1:pos:R:3:forces:R:3 energy=-0.5441636237875297 pbc="F F F"
Ba       0.00000000       0.00000000       0.00000000       0.00000000       0.00000000      -6.39017248
Ba       0.00000000       0.00000000       2.42424242       0.00000000       0.00000000       6.39017248
2
Properties=species:S:1:pos:R:3:forces:R:3 energy=-0.9318707233325432 pbc="F F F"
Ba       0.00000000       0.00000000       0.00000000       0.00000000       0.00000000      -6.56472778
Ba       0.00000000       0.00000000       2.48383838       0.00000000       0.00000000       6.56472778
2
Properties=species:S:1:pos:R:3:forces:R:3 energy=-1.3197681075577246 pbc="F F F"
Ba       0.00000000       0.00000000       0.00000000       0.00000000       0.00000000      -6.39800310
Ba       0.00000000       0.00000000       2.54343434       0.00000000       0.00000000       6.39800310
2
Properties=species:S:1:pos:R:3:forces:R:3 energy=-1.6887413436557661 pbc="F F F"
Ba       0.00000000       0.00000000       0.00000000       0.00000000       0.00000000      -5.94506502
Ba       0.00000000       0.00000000       2.60303030       0.00000000       0.00000000       5.94506502
2
Properties=species:S:1:pos:R:3:forces:R:3 energy=-2.0247678619037424 pbc="F F F"
Ba       0.00000000       0.00000000       0.00000000       0.00000000       0.00000000      -5.31050491
Ba       0.00000000       0.00000000       2.66262626       0.00000000       0.00000000       5.31050491
2
Properties=species:S:1:pos:R:3:forces:R:3 energy=-2.3201448341759714 pbc="F F F"
Ba       0.00000000       0.00000000       0.00000000       0.00000000       0.00000000      -4.59596252
Ba       0.00000000       0.00000000       2.72222222       0.00000000       0.00000000       4.59596252
2
Properties=species:S:1:pos:R:3:forces:R:3 energy=-2.5724946720380175 pbc="F F F"
Ba       0.00000000       0.00000000       0.00000000       0.00000000       0.00000000      -3.87666988
Ba       0.00000000       0.00000000       2.78181818       0.00000000       0.00000000       3.87666988
2
Properties=species:S:1:pos:R:3:forces:R:3 energy=-2.7830828281118083 pbc="F F F"
Ba       0.00000000       0.00000000       0.00000000       0.00000000       0.00000000      -3.20056868
Ba       0.00000000       0.00000000       2.84141414       0.00000000       0.00000000       3.20056868
2
Properties=species:S:1:pos:R:3:forces:R:3 energy=-2.9553975619425037 pbc="F F F"
Ba       0.00000000       0.00000000       0.00000000       0.00000000       0.00000000      -2.59563780
Ba       0.00000000       0.00000000       2.90101010       0.00000000       0.00000000       2.59563780
2
Properties=species:S:1:pos:R:3:forces:R:3 energy=-3.094169642332821 pbc="F F F"
Ba       0.00000000       0.00000000       0.00000000       0.00000000       0.00000000      -2.07637572
Ba       0.00000000       0.00000000       2.96060606       0.00000000       0.00000000       2.07637572
2
Properties=species:S:1:pos:R:3:forces:R:3 energy=-3.204689041359163 pbc="F F F"
Ba       0.00000000       0.00000000       0.00000000       0.00000000       0.00000000      -1.64759874
Ba       0.00000000       0.00000000       3.02020202       0.00000000       0.00000000       1.64759874
2
Properties=species:S:1:pos:R:3:forces:R:3 energy=-3.2922970014278223 pbc="F F F"
Ba       0.00000000       0.00000000       0.00000000       0.00000000       0.00000000      -1.30657887
Ba       0.00000000       0.00000000       3.07979798       0.00000000       0.00000000       1.30657887
2
Properties=species:S:1:pos:R:3:forces:R:3 energy=-3.3619990745936916 pbc="F F F"
Ba       0.00000000       0.00000000       0.00000000       0.00000000       0.00000000      -1.04485953
Ba       0.00000000       0.00000000       3.13939394       0.00000000       0.00000000       1.04485953
2
Properties=species:S:1:pos:R:3:forces:R:3 energy=-3.418171357848448 pbc="F F F"
Ba       0.00000000       0.00000000       0.00000000       0.00000000       0.00000000      -0.85027075
Ba       0.00000000       0.00000000       3.19898990       0.00000000       0.00000000       0.85027075
2
Properties=species:S:1:pos:R:3:forces:R:3 energy=-3.464401323552612 pbc="F F F"
Ba       0.00000000       0.00000000       0.00000000       0.00000000       0.00000000      -0.70883620
Ba       0.00000000       0.00000000       3.25858586       0.00000000       0.00000000       0.70883620
2
Properties=species:S:1:pos:R:3:forces:R:3 energy=-3.5034315923285813 pbc="F F F"
Ba       0.00000000       0.00000000       0.00000000       0.00000000       0.00000000      -0.60636222
Ba       0.00000000       0.00000000       3.31818182       0.00000000       0.00000000       0.60636222
2
Properties=species:S:1:pos:R:3:forces:R:3 energy=-3.537188758702029 pbc="F F F"
Ba       0.00000000       0.00000000       0.00000000       0.00000000       0.00000000      -0.52982271
Ba       0.00000000       0.00000000       3.37777778       0.00000000       0.00000000       0.52982271
2
Properties=species:S:1:pos:R:3:forces:R:3 energy=-3.566880295087136 pbc="F F F"
Ba       0.00000000       0.00000000       0.00000000       0.00000000       0.00000000      -0.46837729
Ba       0.00000000       0.00000000       3.43737374       0.00000000       0.00000000       0.46837729
2
Properties=species:S:1:pos:R:3:forces:R:3 energy=-3.5931515232383298 pbc="F F F"
Ba       0.00000000       0.00000000       0.00000000       0.00000000       0.00000000      -0.41387591
Ba       0.00000000       0.00000000       3.49696970       0.00000000       0.00000000       0.41387591
2
Properties=species:S:1:pos:R:3:forces:R:3 energy=-3.6162383301979353 pbc="F F F"
Ba       0.00000000       0.00000000       0.00000000       0.00000000       0.00000000      -0.36077887
Ba       0.00000000       0.00000000       3.55656566       0.00000000       0.00000000       0.36077887
2
Properties=species:S:1:pos:R:3:forces:R:3 energy=-3.6361167187575765 pbc="F F F"
Ba       0.00000000       0.00000000       0.00000000       0.00000000       0.00000000      -0.30586866
Ba       0.00000000       0.00000000       3.61616162       0.00000000       0.00000000       0.30586866
2
Properties=species:S:1:pos:R:3:forces:R:3 energy=-3.6526333584774457 pbc="F F F"
Ba       0.00000000       0.00000000       0.00000000       0.00000000       0.00000000      -0.24792293
Ba       0.00000000       0.00000000       3.67575758       0.00000000       0.00000000       0.24792293
2
Properties=species:S:1:pos:R:3:forces:R:3 energy=-3.6656125572646885 pbc="F F F"
Ba       0.00000000       0.00000000       0.00000000       0.00000000       0.00000000      -0.18731916
Ba       0.00000000       0.00000000       3.73535354       0.00000000       0.00000000       0.18731916
2
Properties=species:S:1:pos:R:3:forces:R:3 energy=-3.6749366094263243 pbc="F F F"
Ba       0.00000000       0.00000000       0.00000000       0.00000000       0.00000000      -0.12555318
Ba       0.00000000       0.00000000       3.79494949       0.00000000       0.00000000       0.12555318
2
Properties=species:S:1:pos:R:3:forces:R:3 energy=-3.680597038992728 pbc="F F F"
Ba       0.00000000       0.00000000       0.00000000       0.00000000       0.00000000      -0.06476896
Ba       0.00000000       0.00000000       3.85454545       0.00000000       0.00000000       0.06476896
2
Properties=species:S:1:pos:R:3:forces:R:3 energy=-3.6827231642534737 pbc="F F F"
Ba       0.00000000       0.00000000       0.00000000       0.00000000       0.00000000      -0.00732810
Ba       0.00000000       0.00000000       3.91414141       0.00000000       0.00000000       0.00732810
2
Properties=species:S:1:pos:R:3:forces:R:3 energy=-3.681580588210158 pbc="F F F"
Ba       0.00000000       0.00000000       0.00000000       0.00000000       0.00000000       0.04459846
Ba       0.00000000       0.00000000       3.97373737       0.00000000       0.00000000      -0.04459846
2
Properties=species:S:1:pos:R:3:forces:R:3 energy=-3.6775494487925737 pbc="F F F"
Ba       0.00000000       0.00000000       0.00000000       0.00000000       0.00000000       0.08939447
Ba       0.00000000       0.00000000       4.03333333       0.00000000       0.00000000      -0.08939447
2
Properties=species:S:1:pos:R:3:forces:R:3 energy=-3.6710846773198953 pbc="F F F"
Ba       0.00000000       0.00000000       0.00000000       0.00000000       0.00000000       0.12617344
Ba       0.00000000       0.00000000       4.09292929       0.00000000       0.00000000      -0.12617344
2
Properties=species:S:1:pos:R:3:forces:R:3 energy=-3.662674392298907 pbc="F F F"
Ba       0.00000000       0.00000000       0.00000000       0.00000000       0.00000000       0.15471134
Ba       0.00000000       0.00000000       4.15252525       0.00000000       0.00000000      -0.15471134
2
Properties=species:S:1:pos:R:3:forces:R:3 energy=-3.6528026228031876 pbc="F F F"
Ba       0.00000000       0.00000000       0.00000000       0.00000000       0.00000000       0.17532396
Ba       0.00000000       0.00000000       4.21212121       0.00000000       0.00000000      -0.17532396
2
Properties=species:S:1:pos:R:3:forces:R:3 energy=-3.641919935695734 pbc="F F F"
Ba       0.00000000       0.00000000       0.00000000       0.00000000       0.00000000       0.18875426
Ba       0.00000000       0.00000000       4.27171717       0.00000000       0.00000000      -0.18875426
2
Properties=species:S:1:pos:R:3:forces:R:3 energy=-3.630425153491442 pbc="F F F"
Ba       0.00000000       0.00000000       0.00000000       0.00000000       0.00000000       0.19613300
Ba       0.00000000       0.00000000       4.33131313       0.00000000       0.00000000      -0.19613300
2
Properties=species:S:1:pos:R:3:forces:R:3 energy=-3.61863415793861 pbc="F F F"
Ba       0.00000000       0.00000000       0.00000000       0.00000000       0.00000000       0.19892357
Ba       0.00000000       0.00000000       4.39090909       0.00000000       0.00000000      -0.19892357
2
Properties=species:S:1:pos:R:3:forces:R:3 energy=-3.606770920475787 pbc="F F F"
Ba       0.00000000       0.00000000       0.00000000       0.00000000       0.00000000       0.19889142
Ba       0.00000000       0.00000000       4.45050505       0.00000000       0.00000000      -0.19889142
2
Properties=species:S:1:pos:R:3:forces:R:3 energy=-3.594942530834672 pbc="F F F"
Ba       0.00000000       0.00000000       0.00000000       0.00000000       0.00000000       0.19815071
Ba       0.00000000       0.00000000       4.51010101       0.00000000       0.00000000      -0.19815071
2
Properties=species:S:1:pos:R:3:forces:R:3 energy=-3.583115210127462 pbc="F F F"
Ba       0.00000000       0.00000000       0.00000000       0.00000000       0.00000000       0.19931489
Ba       0.00000000       0.00000000       4.56969697       0.00000000       0.00000000      -0.19931489
2
Properties=species:S:1:pos:R:3:forces:R:3 energy=-3.5710871102877375 pbc="F F F"
Ba       0.00000000       0.00000000       0.00000000       0.00000000       0.00000000       0.20542528
Ba       0.00000000       0.00000000       4.62929293       0.00000000       0.00000000      -0.20542528
2
Properties=species:S:1:pos:R:3:forces:R:3 energy=-3.558477291132175 pbc="F F F"
Ba       0.00000000       0.00000000       0.00000000       0.00000000       0.00000000       0.21919093
Ba       0.00000000       0.00000000       4.68888889       0.00000000       0.00000000      -0.21919093
2
Properties=species:S:1:pos:R:3:forces:R:3 energy=-3.5447838023434675 pbc="F F F"
Ba       0.00000000       0.00000000       0.00000000       0.00000000       0.00000000       0.24181828
Ba       0.00000000       0.00000000       4.74848485       0.00000000       0.00000000      -0.24181828
2
Properties=species:S:1:pos:R:3:forces:R:3 energy=-3.529488070283149 pbc="F F F"
Ba       0.00000000       0.00000000       0.00000000       0.00000000       0.00000000       0.27282006
Ba       0.00000000       0.00000000       4.80808081       0.00000000       0.00000000      -0.27282006
2
Properties=species:S:1:pos:R:3:forces:R:3 energy=-3.512114598807449 pbc="F F F"
Ba       0.00000000       0.00000000       0.00000000       0.00000000       0.00000000       0.31148437
Ba       0.00000000       0.00000000       4.86767677       0.00000000       0.00000000      -0.31148437
2
Properties=species:S:1:pos:R:3:forces:R:3 energy=-3.492194577529459 pbc="F F F"
Ba       0.00000000       0.00000000       0.00000000       0.00000000       0.00000000       0.35857227
Ba       0.00000000       0.00000000       4.92727273       0.00000000       0.00000000      -0.35857227
2
Properties=species:S:1:pos:R:3:forces:R:3 energy=-3.46916046685139 pbc="F F F"
Ba       0.00000000       0.00000000       0.00000000       0.00000000       0.00000000       0.41646120
Ba       0.00000000       0.00000000       4.98686869       0.00000000       0.00000000      -0.41646120
2
Properties=species:S:1:pos:R:3:forces:R:3 energy=-3.4423039585307627 pbc="F F F"
Ba       0.00000000       0.00000000       0.00000000       0.00000000       0.00000000       0.48703885
Ba       0.00000000       0.00000000       5.04646465       0.00000000       0.00000000      -0.48703885
2
Properties=species:S:1:pos:R:3:forces:R:3 energy=-3.410902165818546 pbc="F F F"
Ba       0.00000000       0.00000000       0.00000000       0.00000000       0.00000000       0.56781012
Ba       0.00000000       0.00000000       5.10606061       0.00000000       0.00000000      -0.56781012
2
Properties=species:S:1:pos:R:3:forces:R:3 energy=-3.374640702264795 pbc="F F F"
Ba       0.00000000       0.00000000       0.00000000       0.00000000       0.00000000       0.64708495
Ba       0.00000000       0.00000000       5.16565657       0.00000000       0.00000000      -0.64708495
2
Properties=species:S:1:pos:R:3:forces:R:3 energy=-3.3342542597066633 pbc="F F F"
Ba       0.00000000       0.00000000       0.00000000       0.00000000       0.00000000       0.70197326
Ba       0.00000000       0.00000000       5.22525253       0.00000000       0.00000000      -0.70197326
2
Properties=species:S:1:pos:R:3:forces:R:3 energy=-3.2919367439337948 pbc="F F F"
Ba       0.00000000       0.00000000       0.00000000       0.00000000       0.00000000       0.70962256
Ba       0.00000000       0.00000000       5.28484848       0.00000000       0.00000000      -0.70962256
2
Properties=species:S:1:pos:R:3:forces:R:3 energy=-3.250384435590406 pbc="F F F"
Ba       0.00000000       0.00000000       0.00000000       0.00000000       0.00000000       0.68417072
Ba       0.00000000       0.00000000       5.34444444       0.00000000       0.00000000      -0.68417072
2
Properties=species:S:1:pos:R:3:forces:R:3 energy=-3.2095070525946645 pbc="F F F"
Ba       0.00000000       0.00000000       0.00000000       0.00000000       0.00000000       0.70203942
Ba       0.00000000       0.00000000       5.40404040       0.00000000       0.00000000      -0.70203942
2
Properties=species:S:1:pos:R:3:forces:R:3 energy=-3.165017903069195 pbc="F F F"
Ba       0.00000000       0.00000000       0.00000000       0.00000000       0.00000000       0.79711974
Ba       0.00000000       0.00000000       5.46363636       0.00000000       0.00000000      -0.79711974
2
Properties=species:S:1:pos:R:3:forces:R:3 energy=-3.1154189971962327 pbc="F F F"
Ba       0.00000000       0.00000000       0.00000000       0.00000000       0.00000000       0.84879994
Ba       0.00000000       0.00000000       5.52323232       0.00000000       0.00000000      -0.84879994
2
Properties=species:S:1:pos:R:3:forces:R:3 energy=-3.066366064257201 pbc="F F F"
Ba       0.00000000       0.00000000       0.00000000       0.00000000       0.00000000       0.78223139
Ba       0.00000000       0.00000000       5.58282828       0.00000000       0.00000000      -0.78223139
2
Properties=species:S:1:pos:R:3:forces:R:3 energy=-3.022352080778069 pbc="F F F"
Ba       0.00000000       0.00000000       0.00000000       0.00000000       0.00000000       0.70887595
Ba       0.00000000       0.00000000       5.64242424       0.00000000       0.00000000      -0.70887595
2
Properties=species:S:1:pos:R:3:forces:R:3 energy=-2.978842993028217 pbc="F F F"
Ba       0.00000000       0.00000000       0.00000000       0.00000000       0.00000000       0.77901244
Ba       0.00000000       0.00000000       5.70202020       0.00000000       0.00000000      -0.77901244
2
Properties=species:S:1:pos:R:3:forces:R:3 energy=-2.9278050526313173 pbc="F F F"
Ba       0.00000000       0.00000000       0.00000000       0.00000000       0.00000000       0.92595607
Ba       0.00000000       0.00000000       5.76161616       0.00000000       0.00000000      -0.92595607
2
Properties=species:S:1:pos:R:3:forces:R:3 energy=-2.872752346095978 pbc="F F F"
Ba       0.00000000       0.00000000       0.00000000       0.00000000       0.00000000       0.86710602
Ba       0.00000000       0.00000000       5.82121212       0.00000000       0.00000000      -0.86710602
2
Properties=species:S:1:pos:R:3:forces:R:3 energy=-2.830173785368631 pbc="F F F"
Ba       0.00000000       0.00000000       0.00000000       0.00000000       0.00000000       0.53743440
Ba       0.00000000       0.00000000       5.88080808       0.00000000       0.00000000      -0.53743440
2
Properties=species:S:1:pos:R:3:forces:R:3 energy=-2.8090515887334147 pbc="F F F"
Ba       0.00000000       0.00000000       0.00000000       0.00000000       0.00000000       0.18377098
Ba       0.00000000       0.00000000       5.94040404       0.00000000       0.00000000      -0.18377098
2
Properties=species:S:1:pos:R:3:forces:R:3 energy=-2.8038230146375396 pbc="F F F"
Ba       0.00000000       0.00000000       0.00000000       0.00000000       0.00000000       0.04043264
Ba       0.00000000       0.00000000       6.00000000       0.00000000       0.00000000      -0.04043264
