2
Properties=species:S:1:pos:R:3:forces:R:3 energy=92949.71639874495 pbc="F F F"
Bi       0.00000000       0.00000000       0.00000000       0.00000000       0.00000000 -2372766.00000000
Bi       0.00000000       0.00000000       0.10000000       0.00000000       0.00000000 2372766.00000000
2
Properties=species:S:1:pos:R:3:forces:R:3 energy=25268.144133119942 pbc="F F F"
Bi       0.00000000       0.00000000       0.00000000       0.00000000       0.00000000 -480634.87500000
Bi       0.00000000       0.00000000       0.15959596       0.00000000       0.00000000  480634.87500000
2
Properties=species:S:1:pos:R:3:forces:R:3 energy=9058.065031557442 pbc="F F F"
Bi       0.00000000       0.00000000       0.00000000       0.00000000       0.00000000 -142332.60937500
Bi       0.00000000       0.00000000       0.21919192       0.00000000       0.00000000  142332.60937500
2
Properties=species:S:1:pos:R:3:forces:R:3 energy=3796.533049135566 pbc="F F F"
Bi       0.00000000       0.00000000       0.00000000       0.00000000       0.00000000  -51539.95312500
Bi       0.00000000       0.00000000       0.27878788       0.00000000       0.00000000   51539.95312500
2
Properties=species:S:1:pos:R:3:forces:R:3 energy=1783.2481370293592 pbc="F F F"
Bi       0.00000000       0.00000000       0.00000000       0.00000000       0.00000000  -21065.12304688
Bi       0.00000000       0.00000000       0.33838384       0.00000000       0.00000000   21065.12304688
2
Properties=species:S:1:pos:R:3:forces:R:3 energy=926.8047776606948 pbc="F F F"
Bi       0.00000000       0.00000000       0.00000000       0.00000000       0.00000000   -9423.15917969
Bi       0.00000000       0.00000000       0.39797980       0.00000000       0.00000000    9423.15917969
2
Properties=species:S:1:pos:R:3:forces:R:3 energy=528.6890550107804 pbc="F F F"
Bi       0.00000000       0.00000000       0.00000000       0.00000000       0.00000000   -4616.20507812
Bi       0.00000000       0.00000000       0.45757576       0.00000000       0.00000000    4616.20507812
2
Properties=species:S:1:pos:R:3:forces:R:3 energy=323.02660995509234 pbc="F F F"
Bi       0.00000000       0.00000000       0.00000000       0.00000000       0.00000000   -2564.10131836
Bi       0.00000000       0.00000000       0.51717172       0.00000000       0.00000000    2564.10131836
2
Properties=species:S:1:pos:R:3:forces:R:3 energy=216.01646288570836 pbc="F F F"
Bi       0.00000000       0.00000000       0.00000000       0.00000000       0.00000000   -1190.77441406
Bi       0.00000000       0.00000000       0.57676768       0.00000000       0.00000000    1190.77441406
2
Properties=species:S:1:pos:R:3:forces:R:3 energy=158.95805227919098 pbc="F F F"
Bi       0.00000000       0.00000000       0.00000000       0.00000000       0.00000000    -770.38031006
Bi       0.00000000       0.00000000       0.63636364       0.00000000       0.00000000     770.38031006
2
Properties=species:S:1:pos:R:3:forces:R:3 energy=119.25718564966431 pbc="F F F"
Bi       0.00000000       0.00000000       0.00000000       0.00000000       0.00000000    -579.71472168
Bi       0.00000000       0.00000000       0.69595960       0.00000000       0.00000000     579.71472168
2
Properties=species:S:1:pos:R:3:forces:R:3 energy=95.45023232402666 pbc="F F F"
Bi       0.00000000       0.00000000       0.00000000       0.00000000       0.00000000    -222.94735718
Bi       0.00000000       0.00000000       0.75555556       0.00000000       0.00000000     222.94735718
2
Properties=species:S:1:pos:R:3:forces:R:3 energy=90.487601253664 pbc="F F F"
Bi       0.00000000       0.00000000       0.00000000       0.00000000       0.00000000     -28.52573013
Bi       0.00000000       0.00000000       0.81515152       0.00000000       0.00000000      28.52573013
2
Properties=species:S:1:pos:R:3:forces:R:3 energy=91.00949784088407 pbc="F F F"
Bi       0.00000000       0.00000000       0.00000000       0.00000000       0.00000000      46.52365112
Bi       0.00000000       0.00000000       0.87474747       0.00000000       0.00000000     -46.52365112
2
Properties=species:S:1:pos:R:3:forces:R:3 energy=95.54259447747849 pbc="F F F"
Bi       0.00000000       0.00000000       0.00000000       0.00000000       0.00000000     102.34751892
Bi       0.00000000       0.00000000       0.93434343       0.00000000       0.00000000    -102.34751892
2
Properties=species:S:1:pos:R:3:forces:R:3 energy=97.038223281075 pbc="F F F"
Bi       0.00000000       0.00000000       0.00000000       0.00000000       0.00000000       3.36811972
Bi       0.00000000       0.00000000       0.99393939       0.00000000       0.00000000      -3.36811972
2
Properties=species:S:1:pos:R:3:forces:R:3 energy=97.38798584585183 pbc="F F F"
Bi       0.00000000       0.00000000       0.00000000       0.00000000       0.00000000       4.48652124
Bi       0.00000000       0.00000000       1.05353535       0.00000000       0.00000000      -4.48652124
2
Properties=species:S:1:pos:R:3:forces:R:3 energy=97.1653151416896 pbc="F F F"
Bi       0.00000000       0.00000000       0.00000000       0.00000000       0.00000000     -16.17766762
Bi       0.00000000       0.00000000       1.11313131       0.00000000       0.00000000      16.17766762
2
Properties=species:S:1:pos:R:3:forces:R:3 energy=94.92864474882046 pbc="F F F"
Bi       0.00000000       0.00000000       0.00000000       0.00000000       0.00000000     -62.72091293
Bi       0.00000000       0.00000000       1.17272727       0.00000000       0.00000000      62.72091293
2
Properties=species:S:1:pos:R:3:forces:R:3 energy=89.4432411617292 pbc="F F F"
Bi       0.00000000       0.00000000       0.00000000       0.00000000       0.00000000    -121.27812958
Bi       0.00000000       0.00000000       1.23232323       0.00000000       0.00000000     121.27812958
2
Properties=species:S:1:pos:R:3:forces:R:3 energy=80.65290632365506 pbc="F F F"
Bi       0.00000000       0.00000000       0.00000000       0.00000000       0.00000000    -172.05778503
Bi       0.00000000       0.00000000       1.29191919       0.00000000       0.00000000     172.05778503
2
Properties=species:S:1:pos:R:3:forces:R:3 energy=69.14644646930518 pbc="F F F"
Bi       0.00000000       0.00000000       0.00000000       0.00000000       0.00000000    -209.08210754
Bi       0.00000000       0.00000000       1.35151515       0.00000000       0.00000000     209.08210754
2
Properties=species:S:1:pos:R:3:forces:R:3 energy=57.047335830647064 pbc="F F F"
Bi       0.00000000       0.00000000       0.00000000       0.00000000       0.00000000    -186.52784729
Bi       0.00000000       0.00000000       1.41111111       0.00000000       0.00000000     186.52784729
2
Properties=species:S:1:pos:R:3:forces:R:3 energy=47.06692400902701 pbc="F F F"
Bi       0.00000000       0.00000000       0.00000000       0.00000000       0.00000000    -152.27107239
Bi       0.00000000       0.00000000       1.47070707       0.00000000       0.00000000     152.27107239
2
Properties=species:S:1:pos:R:3:forces:R:3 energy=38.58931682620224 pbc="F F F"
Bi       0.00000000       0.00000000       0.00000000       0.00000000       0.00000000    -133.17854309
Bi       0.00000000       0.00000000       1.53030303       0.00000000       0.00000000     133.17854309
2
Properties=species:S:1:pos:R:3:forces:R:3 energy=31.149519997350577 pbc="F F F"
Bi       0.00000000       0.00000000       0.00000000       0.00000000       0.00000000    -116.77544403
Bi       0.00000000       0.00000000       1.58989899       0.00000000       0.00000000     116.77544403
2
Properties=species:S:1:pos:R:3:forces:R:3 energy=24.600459966813812 pbc="F F F"
Bi       0.00000000       0.00000000       0.00000000       0.00000000       0.00000000    -103.70497894
Bi       0.00000000       0.00000000       1.64949495       0.00000000       0.00000000     103.70497894
2
Properties=species:S:1:pos:R:3:forces:R:3 energy=18.779489683682463 pbc="F F F"
Bi       0.00000000       0.00000000       0.00000000       0.00000000       0.00000000     -91.12184906
Bi       0.00000000       0.00000000       1.70909091       0.00000000       0.00000000      91.12184906
2
Properties=species:S:1:pos:R:3:forces:R:3 energy=13.789741620796713 pbc="F F F"
Bi       0.00000000       0.00000000       0.00000000       0.00000000       0.00000000     -76.27864075
Bi       0.00000000       0.00000000       1.76868687       0.00000000       0.00000000      76.27864075
2
Properties=species:S:1:pos:R:3:forces:R:3 energy=9.659566877499563 pbc="F F F"
Bi       0.00000000       0.00000000       0.00000000       0.00000000       0.00000000     -62.69385529
Bi       0.00000000       0.00000000       1.82828283       0.00000000       0.00000000      62.69385529
2
Properties=species:S:1:pos:R:3:forces:R:3 energy=6.276666287100283 pbc="F F F"
Bi       0.00000000       0.00000000       0.00000000       0.00000000       0.00000000     -51.11148071
Bi       0.00000000       0.00000000       1.88787879       0.00000000       0.00000000      51.11148071
2
Properties=species:S:1:pos:R:3:forces:R:3 energy=3.5403589089667795 pbc="F F F"
Bi       0.00000000       0.00000000       0.00000000       0.00000000       0.00000000     -40.92234802
Bi       0.00000000       0.00000000       1.94747475       0.00000000       0.00000000      40.92234802
2
Properties=species:S:1:pos:R:3:forces:R:3 energy=1.3730999065369303 pbc="F F F"
Bi       0.00000000       0.00000000       0.00000000       0.00000000       0.00000000     -32.05140686
Bi       0.00000000       0.00000000       2.00707071       0.00000000       0.00000000      32.05140686
2
Properties=species:S:1:pos:R:3:forces:R:3 energy=-0.31166268988788803 pbc="F F F"
Bi       0.00000000       0.00000000       0.00000000       0.00000000       0.00000000     -24.76881027
Bi       0.00000000       0.00000000       2.06666667       0.00000000       0.00000000      24.76881027
2
Properties=species:S:1:pos:R:3:forces:R:3 energy=-1.611874942425698 pbc="F F F"
Bi       0.00000000       0.00000000       0.00000000       0.00000000       0.00000000     -19.12251663
Bi       0.00000000       0.00000000       2.12626263       0.00000000       0.00000000      19.12251663
2
Properties=species:S:1:pos:R:3:forces:R:3 energy=-2.618112886399113 pbc="F F F"
Bi       0.00000000       0.00000000       0.00000000       0.00000000       0.00000000     -14.84197140
Bi       0.00000000       0.00000000       2.18585859       0.00000000       0.00000000      14.84197140
2
Properties=species:S:1:pos:R:3:forces:R:3 energy=-3.4003881824067013 pbc="F F F"
Bi       0.00000000       0.00000000       0.00000000       0.00000000       0.00000000     -11.54388809
Bi       0.00000000       0.00000000       2.24545455       0.00000000       0.00000000      11.54388809
2
Properties=species:S:1:pos:R:3:forces:R:3 energy=-4.007004667153258 pbc="F F F"
Bi       0.00000000       0.00000000       0.00000000       0.00000000       0.00000000      -8.90130711
Bi       0.00000000       0.00000000       2.30505051       0.00000000       0.00000000       8.90130711
2
Properties=species:S:1:pos:R:3:forces:R:3 energy=-4.469890710516347 pbc="F F F"
Bi       0.00000000       0.00000000       0.00000000       0.00000000       0.00000000      -6.69165564
Bi       0.00000000       0.00000000       2.36464646       0.00000000       0.00000000       6.69165564
2
Properties=species:S:1:pos:R:3:forces:R:3 energy=-4.810563827006393 pbc="F F F"
Bi       0.00000000       0.00000000       0.00000000       0.00000000       0.00000000      -4.78467226
Bi       0.00000000       0.00000000       2.42424242       0.00000000       0.00000000       4.78467226
2
Properties=species:S:1:pos:R:3:forces:R:3 energy=-5.044911012627185 pbc="F F F"
Bi       0.00000000       0.00000000       0.00000000       0.00000000       0.00000000      -3.11712289
Bi       0.00000000       0.00000000       2.48383838       0.00000000       0.00000000       3.11712289
2
Properties=species:S:1:pos:R:3:forces:R:3 energy=-5.186451176013277 pbc="F F F"
Bi       0.00000000       0.00000000       0.00000000       0.00000000       0.00000000      -1.66929364
Bi       0.00000000       0.00000000       2.54343434       0.00000000       0.00000000       1.66929364
2
Properties=species:S:1:pos:R:3:forces:R:3 energy=-5.24829793322168 pbc="F F F"
Bi       0.00000000       0.00000000       0.00000000       0.00000000       0.00000000      -0.44415039
Bi       0.00000000       0.00000000       2.60303030       0.00000000       0.00000000       0.44415039
2
Properties=species:S:1:pos:R:3:forces:R:3 energy=-5.2439648874895886 pbc="F F F"
Bi       0.00000000       0.00000000       0.00000000       0.00000000       0.00000000       0.55101413
Bi       0.00000000       0.00000000       2.66262626       0.00000000       0.00000000      -0.55101413
2
Properties=species:S:1:pos:R:3:forces:R:3 energy=-5.187165894653707 pbc="F F F"
Bi       0.00000000       0.00000000       0.00000000       0.00000000       0.00000000       1.31797779
Bi       0.00000000       0.00000000       2.72222222       0.00000000       0.00000000      -1.31797779
2
Properties=species:S:1:pos:R:3:forces:R:3 energy=-5.091097900064313 pbc="F F F"
Bi       0.00000000       0.00000000       0.00000000       0.00000000       0.00000000       1.87262344
Bi       0.00000000       0.00000000       2.78181818       0.00000000       0.00000000      -1.87262344
2
Properties=species:S:1:pos:R:3:forces:R:3 energy=-4.967656528788731 pbc="F F F"
Bi       0.00000000       0.00000000       0.00000000       0.00000000       0.00000000       2.24148989
Bi       0.00000000       0.00000000       2.84141414       0.00000000       0.00000000      -2.24148989
2
Properties=species:S:1:pos:R:3:forces:R:3 energy=-4.82702080796386 pbc="F F F"
Bi       0.00000000       0.00000000       0.00000000       0.00000000       0.00000000       2.45468760
Bi       0.00000000       0.00000000       2.90101010       0.00000000       0.00000000      -2.45468760
2
Properties=species:S:1:pos:R:3:forces:R:3 energy=-4.677587331590129 pbc="F F F"
Bi       0.00000000       0.00000000       0.00000000       0.00000000       0.00000000       2.54147196
Bi       0.00000000       0.00000000       2.96060606       0.00000000       0.00000000      -2.54147196
2
Properties=species:S:1:pos:R:3:forces:R:3 energy=-4.526050950549357 pbc="F F F"
Bi       0.00000000       0.00000000       0.00000000       0.00000000       0.00000000       2.52994823
Bi       0.00000000       0.00000000       3.02020202       0.00000000       0.00000000      -2.52994823
2
Properties=species:S:1:pos:R:3:forces:R:3 energy=-4.3774409457045165 pbc="F F F"
Bi       0.00000000       0.00000000       0.00000000       0.00000000       0.00000000       2.44778204
Bi       0.00000000       0.00000000       3.07979798       0.00000000       0.00000000      -2.44778204
2
Properties=species:S:1:pos:R:3:forces:R:3 energy=-4.235180380622721 pbc="F F F"
Bi       0.00000000       0.00000000       0.00000000       0.00000000       0.00000000       2.32087326
Bi       0.00000000       0.00000000       3.13939394       0.00000000       0.00000000      -2.32087326
2
Properties=species:S:1:pos:R:3:forces:R:3 energy=-4.101270884645576 pbc="F F F"
Bi       0.00000000       0.00000000       0.00000000       0.00000000       0.00000000       2.17063904
Bi       0.00000000       0.00000000       3.19898990       0.00000000       0.00000000      -2.17063904
2
Properties=species:S:1:pos:R:3:forces:R:3 energy=-3.9766141693506825 pbc="F F F"
Bi       0.00000000       0.00000000       0.00000000       0.00000000       0.00000000       2.01236367
Bi       0.00000000       0.00000000       3.25858586       0.00000000       0.00000000      -2.01236367
2
Properties=species:S:1:pos:R:3:forces:R:3 energy=-3.8613824199899356 pbc="F F F"
Bi       0.00000000       0.00000000       0.00000000       0.00000000       0.00000000       1.85548854
Bi       0.00000000       0.00000000       3.31818182       0.00000000       0.00000000      -1.85548854
2
Properties=species:S:1:pos:R:3:forces:R:3 energy=-3.7553265855596427 pbc="F F F"
Bi       0.00000000       0.00000000       0.00000000       0.00000000       0.00000000       1.70497847
Bi       0.00000000       0.00000000       3.37777778       0.00000000       0.00000000      -1.70497847
2
Properties=species:S:1:pos:R:3:forces:R:3 energy=-3.657996823287435 pbc="F F F"
Bi       0.00000000       0.00000000       0.00000000       0.00000000       0.00000000       1.56278503
Bi       0.00000000       0.00000000       3.43737374       0.00000000       0.00000000      -1.56278503
2
Properties=species:S:1:pos:R:3:forces:R:3 energy=-3.5688838424834395 pbc="F F F"
Bi       0.00000000       0.00000000       0.00000000       0.00000000       0.00000000       1.42922473
Bi       0.00000000       0.00000000       3.49696970       0.00000000       0.00000000      -1.42922473
2
Properties=species:S:1:pos:R:3:forces:R:3 energy=-3.48747576047453 pbc="F F F"
Bi       0.00000000       0.00000000       0.00000000       0.00000000       0.00000000       1.30413914
Bi       0.00000000       0.00000000       3.55656566       0.00000000       0.00000000      -1.30413914
2
Properties=species:S:1:pos:R:3:forces:R:3 energy=-3.4132714598028437 pbc="F F F"
Bi       0.00000000       0.00000000       0.00000000       0.00000000       0.00000000       1.18755352
Bi       0.00000000       0.00000000       3.61616162       0.00000000       0.00000000      -1.18755352
2
Properties=species:S:1:pos:R:3:forces:R:3 energy=-3.3457580508385307 pbc="F F F"
Bi       0.00000000       0.00000000       0.00000000       0.00000000       0.00000000       1.07961011
Bi       0.00000000       0.00000000       3.67575758       0.00000000       0.00000000      -1.07961011
2
Properties=species:S:1:pos:R:3:forces:R:3 energy=-3.2844182905648593 pbc="F F F"
Bi       0.00000000       0.00000000       0.00000000       0.00000000       0.00000000       0.98036045
Bi       0.00000000       0.00000000       3.73535354       0.00000000       0.00000000      -0.98036045
2
Properties=species:S:1:pos:R:3:forces:R:3 energy=-3.228732708797103 pbc="F F F"
Bi       0.00000000       0.00000000       0.00000000       0.00000000       0.00000000       0.88987517
Bi       0.00000000       0.00000000       3.79494949       0.00000000       0.00000000      -0.88987517
2
Properties=species:S:1:pos:R:3:forces:R:3 energy=-3.1781738798009975 pbc="F F F"
Bi       0.00000000       0.00000000       0.00000000       0.00000000       0.00000000       0.80835062
Bi       0.00000000       0.00000000       3.85454545       0.00000000       0.00000000      -0.80835062
2
Properties=species:S:1:pos:R:3:forces:R:3 energy=-3.1322022282233974 pbc="F F F"
Bi       0.00000000       0.00000000       0.00000000       0.00000000       0.00000000       0.73597646
Bi       0.00000000       0.00000000       3.91414141       0.00000000       0.00000000      -0.73597646
2
Properties=species:S:1:pos:R:3:forces:R:3 energy=-3.0902715139983954 pbc="F F F"
Bi       0.00000000       0.00000000       0.00000000       0.00000000       0.00000000       0.67264569
Bi       0.00000000       0.00000000       3.97373737       0.00000000       0.00000000      -0.67264569
2
Properties=species:S:1:pos:R:3:forces:R:3 energy=-3.05185963550899 pbc="F F F"
Bi       0.00000000       0.00000000       0.00000000       0.00000000       0.00000000       0.61778772
Bi       0.00000000       0.00000000       4.03333333       0.00000000       0.00000000      -0.61778772
2
Properties=species:S:1:pos:R:3:forces:R:3 energy=-3.0164889498512037 pbc="F F F"
Bi       0.00000000       0.00000000       0.00000000       0.00000000       0.00000000       0.57033604
Bi       0.00000000       0.00000000       4.09292929       0.00000000       0.00000000      -0.57033604
2
Properties=species:S:1:pos:R:3:forces:R:3 energy=-2.9837606628023394 pbc="F F F"
Bi       0.00000000       0.00000000       0.00000000       0.00000000       0.00000000       0.52888739
Bi       0.00000000       0.00000000       4.15252525       0.00000000       0.00000000      -0.52888739
2
Properties=species:S:1:pos:R:3:forces:R:3 energy=-2.953360927005798 pbc="F F F"
Bi       0.00000000       0.00000000       0.00000000       0.00000000       0.00000000       0.49194399
Bi       0.00000000       0.00000000       4.21212121       0.00000000       0.00000000      -0.49194399
2
Properties=species:S:1:pos:R:3:forces:R:3 energy=-2.9250620609105367 pbc="F F F"
Bi       0.00000000       0.00000000       0.00000000       0.00000000       0.00000000       0.45816684
Bi       0.00000000       0.00000000       4.27171717       0.00000000       0.00000000      -0.45816684
2
Properties=species:S:1:pos:R:3:forces:R:3 energy=-2.8987078356793328 pbc="F F F"
Bi       0.00000000       0.00000000       0.00000000       0.00000000       0.00000000       0.42657736
Bi       0.00000000       0.00000000       4.33131313       0.00000000       0.00000000      -0.42657736
2
Properties=species:S:1:pos:R:3:forces:R:3 energy=-2.874186024542049 pbc="F F F"
Bi       0.00000000       0.00000000       0.00000000       0.00000000       0.00000000       0.39659521
Bi       0.00000000       0.00000000       4.39090909       0.00000000       0.00000000      -0.39659521
2
Properties=species:S:1:pos:R:3:forces:R:3 energy=-2.851409602573929 pbc="F F F"
Bi       0.00000000       0.00000000       0.00000000       0.00000000       0.00000000       0.36797372
Bi       0.00000000       0.00000000       4.45050505       0.00000000       0.00000000      -0.36797372
2
Properties=species:S:1:pos:R:3:forces:R:3 energy=-2.8303009152027894 pbc="F F F"
Bi       0.00000000       0.00000000       0.00000000       0.00000000       0.00000000       0.34064573
Bi       0.00000000       0.00000000       4.51010101       0.00000000       0.00000000      -0.34064573
2
Properties=species:S:1:pos:R:3:forces:R:3 energy=-2.8107824662475576 pbc="F F F"
Bi       0.00000000       0.00000000       0.00000000       0.00000000       0.00000000       0.31457192
Bi       0.00000000       0.00000000       4.56969697       0.00000000       0.00000000      -0.31457192
2
Properties=species:S:1:pos:R:3:forces:R:3 energy=-2.7927830336060295 pbc="F F F"
Bi       0.00000000       0.00000000       0.00000000       0.00000000       0.00000000       0.28965151
Bi       0.00000000       0.00000000       4.62929293       0.00000000       0.00000000      -0.28965151
2
Properties=species:S:1:pos:R:3:forces:R:3 energy=-2.776239151283419 pbc="F F F"
Bi       0.00000000       0.00000000       0.00000000       0.00000000       0.00000000       0.26571074
Bi       0.00000000       0.00000000       4.68888889       0.00000000       0.00000000      -0.26571074
2
Properties=species:S:1:pos:R:3:forces:R:3 energy=-2.761097763674947 pbc="F F F"
Bi       0.00000000       0.00000000       0.00000000       0.00000000       0.00000000       0.24251775
Bi       0.00000000       0.00000000       4.74848485       0.00000000       0.00000000      -0.24251775
2
Properties=species:S:1:pos:R:3:forces:R:3 energy=-2.7473227650697085 pbc="F F F"
Bi       0.00000000       0.00000000       0.00000000       0.00000000       0.00000000       0.21983604
Bi       0.00000000       0.00000000       4.80808081       0.00000000       0.00000000      -0.21983604
2
Properties=species:S:1:pos:R:3:forces:R:3 energy=-2.7348897512741046 pbc="F F F"
Bi       0.00000000       0.00000000       0.00000000       0.00000000       0.00000000       0.19742556
Bi       0.00000000       0.00000000       4.86767677       0.00000000       0.00000000      -0.19742556
2
Properties=species:S:1:pos:R:3:forces:R:3 energy=-2.7237899745252054 pbc="F F F"
Bi       0.00000000       0.00000000       0.00000000       0.00000000       0.00000000       0.17506117
Bi       0.00000000       0.00000000       4.92727273       0.00000000       0.00000000      -0.17506117
2
Properties=species:S:1:pos:R:3:forces:R:3 energy=-2.7140257390939233 pbc="F F F"
Bi       0.00000000       0.00000000       0.00000000       0.00000000       0.00000000       0.15259655
Bi       0.00000000       0.00000000       4.98686869       0.00000000       0.00000000      -0.15259655
2
Properties=species:S:1:pos:R:3:forces:R:3 energy=-2.705602037627813 pbc="F F F"
Bi       0.00000000       0.00000000       0.00000000       0.00000000       0.00000000       0.13016485
Bi       0.00000000       0.00000000       5.04646465       0.00000000       0.00000000      -0.13016485
2
Properties=species:S:1:pos:R:3:forces:R:3 energy=-2.6984980431238075 pbc="F F F"
Bi       0.00000000       0.00000000       0.00000000       0.00000000       0.00000000       0.10845982
Bi       0.00000000       0.00000000       5.10606061       0.00000000       0.00000000      -0.10845982
2
Properties=species:S:1:pos:R:3:forces:R:3 energy=-2.6926304193935207 pbc="F F F"
Bi       0.00000000       0.00000000       0.00000000       0.00000000       0.00000000       0.08895379
Bi       0.00000000       0.00000000       5.16565657       0.00000000       0.00000000      -0.08895379
2
Properties=species:S:1:pos:R:3:forces:R:3 energy=-2.6878120524743117 pbc="F F F"
Bi       0.00000000       0.00000000       0.00000000       0.00000000       0.00000000       0.07359529
Bi       0.00000000       0.00000000       5.22525253       0.00000000       0.00000000      -0.07359529
2
Properties=species:S:1:pos:R:3:forces:R:3 energy=-2.683753142935781 pbc="F F F"
Bi       0.00000000       0.00000000       0.00000000       0.00000000       0.00000000       0.06344406
Bi       0.00000000       0.00000000       5.28484848       0.00000000       0.00000000      -0.06344406
2
Properties=species:S:1:pos:R:3:forces:R:3 energy=-2.680185240561702 pbc="F F F"
Bi       0.00000000       0.00000000       0.00000000       0.00000000       0.00000000       0.05639285
Bi       0.00000000       0.00000000       5.34444444       0.00000000       0.00000000      -0.05639285
2
Properties=species:S:1:pos:R:3:forces:R:3 energy=-2.677087460815989 pbc="F F F"
Bi       0.00000000       0.00000000       0.00000000       0.00000000       0.00000000       0.04660883
Bi       0.00000000       0.00000000       5.40404040       0.00000000       0.00000000      -0.04660883
2
Properties=species:S:1:pos:R:3:forces:R:3 energy=-2.6747313328781477 pbc="F F F"
Bi       0.00000000       0.00000000       0.00000000       0.00000000       0.00000000       0.03230430
Bi       0.00000000       0.00000000       5.46363636       0.00000000       0.00000000      -0.03230430
2
Properties=species:S:1:pos:R:3:forces:R:3 energy=-2.673111932913535 pbc="F F F"
Bi       0.00000000       0.00000000       0.00000000       0.00000000       0.00000000       0.02399442
Bi       0.00000000       0.00000000       5.52323232       0.00000000       0.00000000      -0.02399442
2
Properties=species:S:1:pos:R:3:forces:R:3 energy=-2.671661576621994 pbc="F F F"
Bi       0.00000000       0.00000000       0.00000000       0.00000000       0.00000000       0.02567730
Bi       0.00000000       0.00000000       5.58282828       0.00000000       0.00000000      -0.02567730
2
Properties=species:S:1:pos:R:3:forces:R:3 energy=-2.6700380294764514 pbc="F F F"
Bi       0.00000000       0.00000000       0.00000000       0.00000000       0.00000000       0.02831698
Bi       0.00000000       0.00000000       5.64242424       0.00000000       0.00000000      -0.02831698
2
Properties=species:S:1:pos:R:3:forces:R:3 energy=-2.668348186115714 pbc="F F F"
Bi       0.00000000       0.00000000       0.00000000       0.00000000       0.00000000       0.02819378
Bi       0.00000000       0.00000000       5.70202020       0.00000000       0.00000000      -0.02819378
2
Properties=species:S:1:pos:R:3:forces:R:3 energy=-2.6666200191251783 pbc="F F F"
Bi       0.00000000       0.00000000       0.00000000       0.00000000       0.00000000       0.03080148
Bi       0.00000000       0.00000000       5.76161616       0.00000000       0.00000000      -0.03080148
2
Properties=species:S:1:pos:R:3:forces:R:3 energy=-2.6646249318528255 pbc="F F F"
Bi       0.00000000       0.00000000       0.00000000       0.00000000       0.00000000       0.03532545
Bi       0.00000000       0.00000000       5.82121212       0.00000000       0.00000000      -0.03532545
2
Properties=species:S:1:pos:R:3:forces:R:3 energy=-2.662639607139758 pbc="F F F"
Bi       0.00000000       0.00000000       0.00000000       0.00000000       0.00000000       0.02931343
Bi       0.00000000       0.00000000       5.88080808       0.00000000       0.00000000      -0.02931343
2
Properties=species:S:1:pos:R:3:forces:R:3 energy=-2.661268840141172 pbc="F F F"
Bi       0.00000000       0.00000000       0.00000000       0.00000000       0.00000000       0.01648170
Bi       0.00000000       0.00000000       5.94040404       0.00000000       0.00000000      -0.01648170
2
Properties=species:S:1:pos:R:3:forces:R:3 energy=-2.660531477924037 pbc="F F F"
Bi       0.00000000       0.00000000       0.00000000       0.00000000       0.00000000       0.01019728
Bi       0.00000000       0.00000000       6.00000000       0.00000000       0.00000000      -0.01019728
