2
Properties=species:S:1:pos:R:3:forces:R:3 energy=15804.08836045155 pbc="F F F"
Co       0.00000000       0.00000000       0.00000000       0.00000000       0.00000000 -354121.81250000
Co       0.00000000       0.00000000       0.10000000       0.00000000       0.00000000  354121.81250000
2
Properties=species:S:1:pos:R:3:forces:R:3 energy=5042.927715920298 pbc="F F F"
Co       0.00000000       0.00000000       0.00000000       0.00000000       0.00000000  -83780.30468750
Co       0.00000000       0.00000000       0.15959596       0.00000000       0.00000000   83780.30468750
2
Properties=species:S:1:pos:R:3:forces:R:3 energy=2077.2992979515484 pbc="F F F"
Co       0.00000000       0.00000000       0.00000000       0.00000000       0.00000000  -27853.68945312
Co       0.00000000       0.00000000       0.21919192       0.00000000       0.00000000   27853.68945312
2
Properties=species:S:1:pos:R:3:forces:R:3 energy=998.7167173883101 pbc="F F F"
Co       0.00000000       0.00000000       0.00000000       0.00000000       0.00000000  -11271.99511719
Co       0.00000000       0.00000000       0.27878788       0.00000000       0.00000000   11271.99511719
2
Properties=species:S:1:pos:R:3:forces:R:3 energy=535.9418760797164 pbc="F F F"
Co       0.00000000       0.00000000       0.00000000       0.00000000       0.00000000   -5174.54736328
Co       0.00000000       0.00000000       0.33838384       0.00000000       0.00000000    5174.54736328
2
Properties=species:S:1:pos:R:3:forces:R:3 energy=314.54374376183324 pbc="F F F"
Co       0.00000000       0.00000000       0.00000000       0.00000000       0.00000000   -2597.93310547
Co       0.00000000       0.00000000       0.39797980       0.00000000       0.00000000    2597.93310547
2
Properties=species:S:1:pos:R:3:forces:R:3 energy=199.5079771666064 pbc="F F F"
Co       0.00000000       0.00000000       0.00000000       0.00000000       0.00000000   -1407.43481445
Co       0.00000000       0.00000000       0.45757576       0.00000000       0.00000000    1407.43481445
2
Properties=species:S:1:pos:R:3:forces:R:3 energy=135.01058644171084 pbc="F F F"
Co       0.00000000       0.00000000       0.00000000       0.00000000       0.00000000    -823.09521484
Co       0.00000000       0.00000000       0.51717172       0.00000000       0.00000000     823.09521484
2
Properties=species:S:1:pos:R:3:forces:R:3 energy=95.94669030052549 pbc="F F F"
Co       0.00000000       0.00000000       0.00000000       0.00000000       0.00000000    -518.56359863
Co       0.00000000       0.00000000       0.57676768       0.00000000       0.00000000     518.56359863
2
Properties=species:S:1:pos:R:3:forces:R:3 energy=70.69965819201894 pbc="F F F"
Co       0.00000000       0.00000000       0.00000000       0.00000000       0.00000000    -342.70642090
Co       0.00000000       0.00000000       0.63636364       0.00000000       0.00000000     342.70642090
2
Properties=species:S:1:pos:R:3:forces:R:3 energy=53.832779780699944 pbc="F F F"
Co       0.00000000       0.00000000       0.00000000       0.00000000       0.00000000    -232.70948792
Co       0.00000000       0.00000000       0.69595960       0.00000000       0.00000000     232.70948792
2
Properties=species:S:1:pos:R:3:forces:R:3 energy=41.761055994767126 pbc="F F F"
Co       0.00000000       0.00000000       0.00000000       0.00000000       0.00000000    -182.54571533
Co       0.00000000       0.00000000       0.75555556       0.00000000       0.00000000     182.54571533
2
Properties=species:S:1:pos:R:3:forces:R:3 energy=31.481032641685577 pbc="F F F"
Co       0.00000000       0.00000000       0.00000000       0.00000000       0.00000000    -160.59590149
Co       0.00000000       0.00000000       0.81515152       0.00000000       0.00000000     160.59590149
2
Properties=species:S:1:pos:R:3:forces:R:3 energy=22.95224153719113 pbc="F F F"
Co       0.00000000       0.00000000       0.00000000       0.00000000       0.00000000    -124.67014313
Co       0.00000000       0.00000000       0.87474747       0.00000000       0.00000000     124.67014313
2
Properties=species:S:1:pos:R:3:forces:R:3 energy=16.603122810123974 pbc="F F F"
Co       0.00000000       0.00000000       0.00000000       0.00000000       0.00000000     -89.07274628
Co       0.00000000       0.00000000       0.93434343       0.00000000       0.00000000      89.07274628
2
Properties=species:S:1:pos:R:3:forces:R:3 energy=12.139676823394119 pbc="F F F"
Co       0.00000000       0.00000000       0.00000000       0.00000000       0.00000000     -62.72531128
Co       0.00000000       0.00000000       0.99393939       0.00000000       0.00000000      62.72531128
2
Properties=species:S:1:pos:R:3:forces:R:3 energy=8.934461280433686 pbc="F F F"
Co       0.00000000       0.00000000       0.00000000       0.00000000       0.00000000     -45.91626358
Co       0.00000000       0.00000000       1.05353535       0.00000000       0.00000000      45.91626358
2
Properties=species:S:1:pos:R:3:forces:R:3 energy=6.592875363702735 pbc="F F F"
Co       0.00000000       0.00000000       0.00000000       0.00000000       0.00000000     -33.19528198
Co       0.00000000       0.00000000       1.11313131       0.00000000       0.00000000      33.19528198
2
Properties=species:S:1:pos:R:3:forces:R:3 energy=4.868996116435101 pbc="F F F"
Co       0.00000000       0.00000000       0.00000000       0.00000000       0.00000000     -25.82251549
Co       0.00000000       0.00000000       1.17272727       0.00000000       0.00000000      25.82251549
2
Properties=species:S:1:pos:R:3:forces:R:3 energy=3.4010923238412527 pbc="F F F"
Co       0.00000000       0.00000000       0.00000000       0.00000000       0.00000000     -24.00364494
Co       0.00000000       0.00000000       1.23232323       0.00000000       0.00000000      24.00364494
2
Properties=species:S:1:pos:R:3:forces:R:3 energy=1.9784297357600065 pbc="F F F"
Co       0.00000000       0.00000000       0.00000000       0.00000000       0.00000000     -23.85073662
Co       0.00000000       0.00000000       1.29191919       0.00000000       0.00000000      23.85073662
2
Properties=species:S:1:pos:R:3:forces:R:3 energy=0.5436361314458737 pbc="F F F"
Co       0.00000000       0.00000000       0.00000000       0.00000000       0.00000000     -24.38922691
Co       0.00000000       0.00000000       1.35151515       0.00000000       0.00000000      24.38922691
2
Properties=species:S:1:pos:R:3:forces:R:3 energy=-0.9179310746745388 pbc="F F F"
Co       0.00000000       0.00000000       0.00000000       0.00000000       0.00000000     -24.35534096
Co       0.00000000       0.00000000       1.41111111       0.00000000       0.00000000      24.35534096
2
Properties=species:S:1:pos:R:3:forces:R:3 energy=-2.30956845861337 pbc="F F F"
Co       0.00000000       0.00000000       0.00000000       0.00000000       0.00000000     -21.93926430
Co       0.00000000       0.00000000       1.47070707       0.00000000       0.00000000      21.93926430
2
Properties=species:S:1:pos:R:3:forces:R:3 energy=-3.501218609442986 pbc="F F F"
Co       0.00000000       0.00000000       0.00000000       0.00000000       0.00000000     -17.95156670
Co       0.00000000       0.00000000       1.53030303       0.00000000       0.00000000      17.95156670
2
Properties=species:S:1:pos:R:3:forces:R:3 energy=-4.452252931545 pbc="F F F"
Co       0.00000000       0.00000000       0.00000000       0.00000000       0.00000000     -14.06589413
Co       0.00000000       0.00000000       1.58989899       0.00000000       0.00000000      14.06589413
2
Properties=species:S:1:pos:R:3:forces:R:3 energy=-5.191259642210755 pbc="F F F"
Co       0.00000000       0.00000000       0.00000000       0.00000000       0.00000000     -10.83286953
Co       0.00000000       0.00000000       1.64949495       0.00000000       0.00000000      10.83286953
2
Properties=species:S:1:pos:R:3:forces:R:3 energy=-5.751731941663696 pbc="F F F"
Co       0.00000000       0.00000000       0.00000000       0.00000000       0.00000000      -8.02145767
Co       0.00000000       0.00000000       1.70909091       0.00000000       0.00000000       8.02145767
2
Properties=species:S:1:pos:R:3:forces:R:3 energy=-6.15167150152619 pbc="F F F"
Co       0.00000000       0.00000000       0.00000000       0.00000000       0.00000000      -5.43789530
Co       0.00000000       0.00000000       1.76868687       0.00000000       0.00000000       5.43789530
2
Properties=species:S:1:pos:R:3:forces:R:3 energy=-6.405616906890725 pbc="F F F"
Co       0.00000000       0.00000000       0.00000000       0.00000000       0.00000000      -3.14408708
Co       0.00000000       0.00000000       1.82828283       0.00000000       0.00000000       3.14408708
2
Properties=species:S:1:pos:R:3:forces:R:3 energy=-6.534604266216228 pbc="F F F"
Co       0.00000000       0.00000000       0.00000000       0.00000000       0.00000000      -1.25914228
Co       0.00000000       0.00000000       1.88787879       0.00000000       0.00000000       1.25914228
2
Properties=species:S:1:pos:R:3:forces:R:3 energy=-6.564827659565681 pbc="F F F"
Co       0.00000000       0.00000000       0.00000000       0.00000000       0.00000000       0.16798759
Co       0.00000000       0.00000000       1.94747475       0.00000000       0.00000000      -0.16798759
2
Properties=species:S:1:pos:R:3:forces:R:3 energy=-6.523506486695389 pbc="F F F"
Co       0.00000000       0.00000000       0.00000000       0.00000000       0.00000000       1.14736986
Co       0.00000000       0.00000000       2.00707071       0.00000000       0.00000000      -1.14736986
2
Properties=species:S:1:pos:R:3:forces:R:3 energy=-6.435863875097824 pbc="F F F"
Co       0.00000000       0.00000000       0.00000000       0.00000000       0.00000000       1.73609698
Co       0.00000000       0.00000000       2.06666667       0.00000000       0.00000000      -1.73609698
2
Properties=species:S:1:pos:R:3:forces:R:3 energy=-6.322339590621345 pbc="F F F"
Co       0.00000000       0.00000000       0.00000000       0.00000000       0.00000000       2.03510165
Co       0.00000000       0.00000000       2.12626263       0.00000000       0.00000000      -2.03510165
2
Properties=species:S:1:pos:R:3:forces:R:3 energy=-6.196821278833667 pbc="F F F"
Co       0.00000000       0.00000000       0.00000000       0.00000000       0.00000000       2.15561819
Co       0.00000000       0.00000000       2.18585859       0.00000000       0.00000000      -2.15561819
2
Properties=species:S:1:pos:R:3:forces:R:3 energy=-6.067262210644098 pbc="F F F"
Co       0.00000000       0.00000000       0.00000000       0.00000000       0.00000000       2.18136144
Co       0.00000000       0.00000000       2.24545455       0.00000000       0.00000000      -2.18136144
2
Properties=species:S:1:pos:R:3:forces:R:3 energy=-5.937761930163653 pbc="F F F"
Co       0.00000000       0.00000000       0.00000000       0.00000000       0.00000000       2.15877962
Co       0.00000000       0.00000000       2.30505051       0.00000000       0.00000000      -2.15877962
2
Properties=species:S:1:pos:R:3:forces:R:3 energy=-5.81049455187617 pbc="F F F"
Co       0.00000000       0.00000000       0.00000000       0.00000000       0.00000000       2.10909748
Co       0.00000000       0.00000000       2.36464646       0.00000000       0.00000000      -2.10909748
2
Properties=species:S:1:pos:R:3:forces:R:3 energy=-5.6864263499814305 pbc="F F F"
Co       0.00000000       0.00000000       0.00000000       0.00000000       0.00000000       2.05869246
Co       0.00000000       0.00000000       2.42424242       0.00000000       0.00000000      -2.05869246
2
Properties=species:S:1:pos:R:3:forces:R:3 energy=-5.563928756064766 pbc="F F F"
Co       0.00000000       0.00000000       0.00000000       0.00000000       0.00000000       2.06532907
Co       0.00000000       0.00000000       2.48383838       0.00000000       0.00000000      -2.06532907
2
Properties=species:S:1:pos:R:3:forces:R:3 energy=-5.439306523854552 pbc="F F F"
Co       0.00000000       0.00000000       0.00000000       0.00000000       0.00000000       2.11564898
Co       0.00000000       0.00000000       2.54343434       0.00000000       0.00000000      -2.11564898
2
Properties=species:S:1:pos:R:3:forces:R:3 energy=-5.312827951716778 pbc="F F F"
Co       0.00000000       0.00000000       0.00000000       0.00000000       0.00000000       2.11644936
Co       0.00000000       0.00000000       2.60303030       0.00000000       0.00000000      -2.11644936
2
Properties=species:S:1:pos:R:3:forces:R:3 energy=-5.188352644301656 pbc="F F F"
Co       0.00000000       0.00000000       0.00000000       0.00000000       0.00000000       2.05271316
Co       0.00000000       0.00000000       2.66262626       0.00000000       0.00000000      -2.05271316
2
Properties=species:S:1:pos:R:3:forces:R:3 energy=-5.068749162607179 pbc="F F F"
Co       0.00000000       0.00000000       0.00000000       0.00000000       0.00000000       1.95884550
Co       0.00000000       0.00000000       2.72222222       0.00000000       0.00000000      -1.95884550
2
Properties=species:S:1:pos:R:3:forces:R:3 energy=-4.954938493664132 pbc="F F F"
Co       0.00000000       0.00000000       0.00000000       0.00000000       0.00000000       1.86113930
Co       0.00000000       0.00000000       2.78181818       0.00000000       0.00000000      -1.86113930
2
Properties=species:S:1:pos:R:3:forces:R:3 energy=-4.846821694716567 pbc="F F F"
Co       0.00000000       0.00000000       0.00000000       0.00000000       0.00000000       1.76781487
Co       0.00000000       0.00000000       2.84141414       0.00000000       0.00000000      -1.76781487
2
Properties=species:S:1:pos:R:3:forces:R:3 energy=-4.744227348476672 pbc="F F F"
Co       0.00000000       0.00000000       0.00000000       0.00000000       0.00000000       1.67450142
Co       0.00000000       0.00000000       2.90101010       0.00000000       0.00000000      -1.67450142
2
Properties=species:S:1:pos:R:3:forces:R:3 energy=-4.64737713494733 pbc="F F F"
Co       0.00000000       0.00000000       0.00000000       0.00000000       0.00000000       1.57424581
Co       0.00000000       0.00000000       2.96060606       0.00000000       0.00000000      -1.57424581
2
Properties=species:S:1:pos:R:3:forces:R:3 energy=-4.556750546241406 pbc="F F F"
Co       0.00000000       0.00000000       0.00000000       0.00000000       0.00000000       1.46618617
Co       0.00000000       0.00000000       3.02020202       0.00000000       0.00000000      -1.46618617
2
Properties=species:S:1:pos:R:3:forces:R:3 energy=-4.47262387579765 pbc="F F F"
Co       0.00000000       0.00000000       0.00000000       0.00000000       0.00000000       1.35806501
Co       0.00000000       0.00000000       3.07979798       0.00000000       0.00000000      -1.35806501
2
Properties=species:S:1:pos:R:3:forces:R:3 energy=-4.394637554032285 pbc="F F F"
Co       0.00000000       0.00000000       0.00000000       0.00000000       0.00000000       1.26210761
Co       0.00000000       0.00000000       3.13939394       0.00000000       0.00000000      -1.26210761
2
Properties=species:S:1:pos:R:3:forces:R:3 energy=-4.321750897830288 pbc="F F F"
Co       0.00000000       0.00000000       0.00000000       0.00000000       0.00000000       1.18798578
Co       0.00000000       0.00000000       3.19898990       0.00000000       0.00000000      -1.18798578
2
Properties=species:S:1:pos:R:3:forces:R:3 energy=-4.252556192513351 pbc="F F F"
Co       0.00000000       0.00000000       0.00000000       0.00000000       0.00000000       1.13790321
Co       0.00000000       0.00000000       3.25858586       0.00000000       0.00000000      -1.13790321
2
Properties=species:S:1:pos:R:3:forces:R:3 energy=-4.185750919017608 pbc="F F F"
Co       0.00000000       0.00000000       0.00000000       0.00000000       0.00000000       1.10636818
Co       0.00000000       0.00000000       3.31818182       0.00000000       0.00000000      -1.10636818
2
Properties=species:S:1:pos:R:3:forces:R:3 energy=-4.120511727274196 pbc="F F F"
Co       0.00000000       0.00000000       0.00000000       0.00000000       0.00000000       1.08360934
Co       0.00000000       0.00000000       3.37777778       0.00000000       0.00000000      -1.08360934
2
Properties=species:S:1:pos:R:3:forces:R:3 energy=-4.056617717621586 pbc="F F F"
Co       0.00000000       0.00000000       0.00000000       0.00000000       0.00000000       1.05975604
Co       0.00000000       0.00000000       3.43737374       0.00000000       0.00000000      -1.05975604
2
Properties=species:S:1:pos:R:3:forces:R:3 energy=-3.9943636524430466 pbc="F F F"
Co       0.00000000       0.00000000       0.00000000       0.00000000       0.00000000       1.02762818
Co       0.00000000       0.00000000       3.49696970       0.00000000       0.00000000      -1.02762818
2
Properties=species:S:1:pos:R:3:forces:R:3 energy=-3.9343713543992878 pbc="F F F"
Co       0.00000000       0.00000000       0.00000000       0.00000000       0.00000000       0.98353332
Co       0.00000000       0.00000000       3.55656566       0.00000000       0.00000000      -0.98353332
2
Properties=species:S:1:pos:R:3:forces:R:3 energy=-3.8773888842930293 pbc="F F F"
Co       0.00000000       0.00000000       0.00000000       0.00000000       0.00000000       0.92673194
Co       0.00000000       0.00000000       3.61616162       0.00000000       0.00000000      -0.92673194
2
Properties=species:S:1:pos:R:3:forces:R:3 energy=-3.8241412973741293 pbc="F F F"
Co       0.00000000       0.00000000       0.00000000       0.00000000       0.00000000       0.85849577
Co       0.00000000       0.00000000       3.67575758       0.00000000       0.00000000      -0.85849577
2
Properties=species:S:1:pos:R:3:forces:R:3 energy=-3.775240622486989 pbc="F F F"
Co       0.00000000       0.00000000       0.00000000       0.00000000       0.00000000       0.78134149
Co       0.00000000       0.00000000       3.73535354       0.00000000       0.00000000      -0.78134149
2
Properties=species:S:1:pos:R:3:forces:R:3 energy=-3.7311234534236317 pbc="F F F"
Co       0.00000000       0.00000000       0.00000000       0.00000000       0.00000000       0.69855553
Co       0.00000000       0.00000000       3.79494949       0.00000000       0.00000000      -0.69855553
2
Properties=species:S:1:pos:R:3:forces:R:3 energy=-3.6920170618072428 pbc="F F F"
Co       0.00000000       0.00000000       0.00000000       0.00000000       0.00000000       0.61381054
Co       0.00000000       0.00000000       3.85454545       0.00000000       0.00000000      -0.61381054
2
Properties=species:S:1:pos:R:3:forces:R:3 energy=-3.6579282167615355 pbc="F F F"
Co       0.00000000       0.00000000       0.00000000       0.00000000       0.00000000       0.53077245
Co       0.00000000       0.00000000       3.91414141       0.00000000       0.00000000      -0.53077245
2
Properties=species:S:1:pos:R:3:forces:R:3 energy=-3.628656221904865 pbc="F F F"
Co       0.00000000       0.00000000       0.00000000       0.00000000       0.00000000       0.45260584
Co       0.00000000       0.00000000       3.97373737       0.00000000       0.00000000      -0.45260584
2
Properties=species:S:1:pos:R:3:forces:R:3 energy=-3.603838879450843 pbc="F F F"
Co       0.00000000       0.00000000       0.00000000       0.00000000       0.00000000       0.38156378
Co       0.00000000       0.00000000       4.03333333       0.00000000       0.00000000      -0.38156378
2
Properties=species:S:1:pos:R:3:forces:R:3 energy=-3.583012651717743 pbc="F F F"
Co       0.00000000       0.00000000       0.00000000       0.00000000       0.00000000       0.31874859
Co       0.00000000       0.00000000       4.09292929       0.00000000       0.00000000      -0.31874859
2
Properties=species:S:1:pos:R:3:forces:R:3 energy=-3.565681758166929 pbc="F F F"
Co       0.00000000       0.00000000       0.00000000       0.00000000       0.00000000       0.26420349
Co       0.00000000       0.00000000       4.15252525       0.00000000       0.00000000      -0.26420349
2
Properties=species:S:1:pos:R:3:forces:R:3 energy=-3.5513701293102624 pbc="F F F"
Co       0.00000000       0.00000000       0.00000000       0.00000000       0.00000000       0.21729381
Co       0.00000000       0.00000000       4.21212121       0.00000000       0.00000000      -0.21729381
2
Properties=species:S:1:pos:R:3:forces:R:3 energy=-3.539645341266774 pbc="F F F"
Co       0.00000000       0.00000000       0.00000000       0.00000000       0.00000000       0.17727144
Co       0.00000000       0.00000000       4.27171717       0.00000000       0.00000000      -0.17727144
2
Properties=species:S:1:pos:R:3:forces:R:3 energy=-3.5301110885703575 pbc="F F F"
Co       0.00000000       0.00000000       0.00000000       0.00000000       0.00000000       0.14379224
Co       0.00000000       0.00000000       4.33131313       0.00000000       0.00000000      -0.14379224
2
Properties=species:S:1:pos:R:3:forces:R:3 energy=-3.522370926370732 pbc="F F F"
Co       0.00000000       0.00000000       0.00000000       0.00000000       0.00000000       0.11717149
Co       0.00000000       0.00000000       4.39090909       0.00000000       0.00000000      -0.11717149
2
Properties=species:S:1:pos:R:3:forces:R:3 energy=-3.5159916815170655 pbc="F F F"
Co       0.00000000       0.00000000       0.00000000       0.00000000       0.00000000       0.09828776
Co       0.00000000       0.00000000       4.45050505       0.00000000       0.00000000      -0.09828776
2
Properties=species:S:1:pos:R:3:forces:R:3 energy=-3.5104823101640816 pbc="F F F"
Co       0.00000000       0.00000000       0.00000000       0.00000000       0.00000000       0.08812501
Co       0.00000000       0.00000000       4.51010101       0.00000000       0.00000000      -0.08812501
2
Properties=species:S:1:pos:R:3:forces:R:3 energy=-3.505304118924661 pbc="F F F"
Co       0.00000000       0.00000000       0.00000000       0.00000000       0.00000000       0.08716188
Co       0.00000000       0.00000000       4.56969697       0.00000000       0.00000000      -0.08716188
2
Properties=species:S:1:pos:R:3:forces:R:3 energy=-3.499920705226645 pbc="F F F"
Co       0.00000000       0.00000000       0.00000000       0.00000000       0.00000000       0.09482561
Co       0.00000000       0.00000000       4.62929293       0.00000000       0.00000000      -0.09482561
2
Properties=species:S:1:pos:R:3:forces:R:3 energy=-3.493867570034211 pbc="F F F"
Co       0.00000000       0.00000000       0.00000000       0.00000000       0.00000000       0.10921726
Co       0.00000000       0.00000000       4.68888889       0.00000000       0.00000000      -0.10921726
2
Properties=species:S:1:pos:R:3:forces:R:3 energy=-3.486830309638347 pbc="F F F"
Co       0.00000000       0.00000000       0.00000000       0.00000000       0.00000000       0.12724502
Co       0.00000000       0.00000000       4.74848485       0.00000000       0.00000000      -0.12724502
2
Properties=species:S:1:pos:R:3:forces:R:3 energy=-3.4787034575285607 pbc="F F F"
Co       0.00000000       0.00000000       0.00000000       0.00000000       0.00000000       0.14515112
Co       0.00000000       0.00000000       4.80808081       0.00000000       0.00000000      -0.14515112
2
Properties=species:S:1:pos:R:3:forces:R:3 energy=-3.469603654435529 pbc="F F F"
Co       0.00000000       0.00000000       0.00000000       0.00000000       0.00000000       0.15935628
Co       0.00000000       0.00000000       4.86767677       0.00000000       0.00000000      -0.15935628
2
Properties=species:S:1:pos:R:3:forces:R:3 energy=-3.459833662964761 pbc="F F F"
Co       0.00000000       0.00000000       0.00000000       0.00000000       0.00000000       0.16735201
Co       0.00000000       0.00000000       4.92727273       0.00000000       0.00000000      -0.16735201
2
Properties=species:S:1:pos:R:3:forces:R:3 energy=-3.4497967388967488 pbc="F F F"
Co       0.00000000       0.00000000       0.00000000       0.00000000       0.00000000       0.16834602
Co       0.00000000       0.00000000       4.98686869       0.00000000       0.00000000      -0.16834602
2
Properties=species:S:1:pos:R:3:forces:R:3 energy=-3.439888555462718 pbc="F F F"
Co       0.00000000       0.00000000       0.00000000       0.00000000       0.00000000       0.16337779
Co       0.00000000       0.00000000       5.04646465       0.00000000       0.00000000      -0.16337779
2
Properties=species:S:1:pos:R:3:forces:R:3 energy=-3.4303982137008777 pbc="F F F"
Co       0.00000000       0.00000000       0.00000000       0.00000000       0.00000000       0.15468314
Co       0.00000000       0.00000000       5.10606061       0.00000000       0.00000000      -0.15468314
2
Properties=species:S:1:pos:R:3:forces:R:3 energy=-3.4214802722069293 pbc="F F F"
Co       0.00000000       0.00000000       0.00000000       0.00000000       0.00000000       0.14440802
Co       0.00000000       0.00000000       5.16565657       0.00000000       0.00000000      -0.14440802
2
Properties=species:S:1:pos:R:3:forces:R:3 energy=-3.4132048562173636 pbc="F F F"
Co       0.00000000       0.00000000       0.00000000       0.00000000       0.00000000       0.13305388
Co       0.00000000       0.00000000       5.22525253       0.00000000       0.00000000      -0.13305388
2
Properties=species:S:1:pos:R:3:forces:R:3 energy=-3.4056781096770625 pbc="F F F"
Co       0.00000000       0.00000000       0.00000000       0.00000000       0.00000000       0.11886986
Co       0.00000000       0.00000000       5.28484848       0.00000000       0.00000000      -0.11886986
2
Properties=species:S:1:pos:R:3:forces:R:3 energy=-3.39911574061935 pbc="F F F"
Co       0.00000000       0.00000000       0.00000000       0.00000000       0.00000000       0.10103850
Co       0.00000000       0.00000000       5.34444444       0.00000000       0.00000000      -0.10103850
2
Properties=species:S:1:pos:R:3:forces:R:3 energy=-3.3935452759584672 pbc="F F F"
Co       0.00000000       0.00000000       0.00000000       0.00000000       0.00000000       0.08811109
Co       0.00000000       0.00000000       5.40404040       0.00000000       0.00000000      -0.08811109
2
Properties=species:S:1:pos:R:3:forces:R:3 energy=-3.388220099898144 pbc="F F F"
Co       0.00000000       0.00000000       0.00000000       0.00000000       0.00000000       0.09380112
Co       0.00000000       0.00000000       5.46363636       0.00000000       0.00000000      -0.09380112
2
Properties=species:S:1:pos:R:3:forces:R:3 energy=-3.382239637676637 pbc="F F F"
Co       0.00000000       0.00000000       0.00000000       0.00000000       0.00000000       0.10533052
Co       0.00000000       0.00000000       5.52323232       0.00000000       0.00000000      -0.10533052
2
Properties=species:S:1:pos:R:3:forces:R:3 energy=-3.376031904064117 pbc="F F F"
Co       0.00000000       0.00000000       0.00000000       0.00000000       0.00000000       0.10011048
Co       0.00000000       0.00000000       5.58282828       0.00000000       0.00000000      -0.10011048
2
Properties=species:S:1:pos:R:3:forces:R:3 energy=-3.370412942068112 pbc="F F F"
Co       0.00000000       0.00000000       0.00000000       0.00000000       0.00000000       0.09002964
Co       0.00000000       0.00000000       5.64242424       0.00000000       0.00000000      -0.09002964
2
Properties=species:S:1:pos:R:3:forces:R:3 energy=-3.364870541033309 pbc="F F F"
Co       0.00000000       0.00000000       0.00000000       0.00000000       0.00000000       0.10032852
Co       0.00000000       0.00000000       5.70202020       0.00000000       0.00000000      -0.10032852
2
Properties=species:S:1:pos:R:3:forces:R:3 energy=-3.358169824584207 pbc="F F F"
Co       0.00000000       0.00000000       0.00000000       0.00000000       0.00000000       0.12335108
Co       0.00000000       0.00000000       5.76161616       0.00000000       0.00000000      -0.12335108
2
Properties=species:S:1:pos:R:3:forces:R:3 energy=-3.350825899212442 pbc="F F F"
Co       0.00000000       0.00000000       0.00000000       0.00000000       0.00000000       0.11515358
Co       0.00000000       0.00000000       5.82121212       0.00000000       0.00000000      -0.11515358
2
Properties=species:S:1:pos:R:3:forces:R:3 energy=-3.345205239193706 pbc="F F F"
Co       0.00000000       0.00000000       0.00000000       0.00000000       0.00000000       0.07084493
Co       0.00000000       0.00000000       5.88080808       0.00000000       0.00000000      -0.07084493
2
Properties=species:S:1:pos:R:3:forces:R:3 energy=-3.3423539899747605 pbc="F F F"
Co       0.00000000       0.00000000       0.00000000       0.00000000       0.00000000       0.02681642
Co       0.00000000       0.00000000       5.94040404       0.00000000       0.00000000      -0.02681642
2
Properties=species:S:1:pos:R:3:forces:R:3 energy=-3.341461804386812 pbc="F F F"
Co       0.00000000       0.00000000       0.00000000       0.00000000       0.00000000       0.00903741
Co       0.00000000       0.00000000       6.00000000       0.00000000       0.00000000      -0.00903741
