2
Properties=species:S:1:pos:R:3:forces:R:3 energy=68249.35701535015 pbc="F F F"
Er       0.00000000       0.00000000       0.00000000       0.00000000       0.00000000 -1706187.87500000
Er       0.00000000       0.00000000       0.10000000       0.00000000       0.00000000 1706187.87500000
2
Properties=species:S:1:pos:R:3:forces:R:3 energy=19021.935140350146 pbc="F F F"
Er       0.00000000       0.00000000       0.00000000       0.00000000       0.00000000 -355481.93750000
Er       0.00000000       0.00000000       0.15959596       0.00000000       0.00000000  355481.93750000
2
Properties=species:S:1:pos:R:3:forces:R:3 energy=6924.672445037646 pbc="F F F"
Er       0.00000000       0.00000000       0.00000000       0.00000000       0.00000000 -107627.19531250
Er       0.00000000       0.00000000       0.21919192       0.00000000       0.00000000  107627.19531250
2
Properties=species:S:1:pos:R:3:forces:R:3 energy=2908.808919647021 pbc="F F F"
Er       0.00000000       0.00000000       0.00000000       0.00000000       0.00000000  -39857.38281250
Er       0.00000000       0.00000000       0.27878788       0.00000000       0.00000000   39857.38281250
2
Properties=species:S:1:pos:R:3:forces:R:3 energy=1337.4132897642085 pbc="F F F"
Er       0.00000000       0.00000000       0.00000000       0.00000000       0.00000000  -16633.28515625
Er       0.00000000       0.00000000       0.33838384       0.00000000       0.00000000   16633.28515625
2
Properties=species:S:1:pos:R:3:forces:R:3 energy=656.9072472837398 pbc="F F F"
Er       0.00000000       0.00000000       0.00000000       0.00000000       0.00000000   -7526.89941406
Er       0.00000000       0.00000000       0.39797980       0.00000000       0.00000000    7526.89941406
2
Properties=species:S:1:pos:R:3:forces:R:3 energy=340.05113767727045 pbc="F F F"
Er       0.00000000       0.00000000       0.00000000       0.00000000       0.00000000   -3627.38061523
Er       0.00000000       0.00000000       0.45757576       0.00000000       0.00000000    3627.38061523
2
Properties=species:S:1:pos:R:3:forces:R:3 energy=183.60597777783235 pbc="F F F"
Er       0.00000000       0.00000000       0.00000000       0.00000000       0.00000000   -1844.10668945
Er       0.00000000       0.00000000       0.51717172       0.00000000       0.00000000    1844.10668945
2
Properties=species:S:1:pos:R:3:forces:R:3 energy=102.35237672895619 pbc="F F F"
Er       0.00000000       0.00000000       0.00000000       0.00000000       0.00000000    -982.44842529
Er       0.00000000       0.00000000       0.57676768       0.00000000       0.00000000     982.44842529
2
Properties=species:S:1:pos:R:3:forces:R:3 energy=58.24543935852278 pbc="F F F"
Er       0.00000000       0.00000000       0.00000000       0.00000000       0.00000000    -545.03448486
Er       0.00000000       0.00000000       0.63636364       0.00000000       0.00000000     545.03448486
2
Properties=species:S:1:pos:R:3:forces:R:3 energy=33.386079693339575 pbc="F F F"
Er       0.00000000       0.00000000       0.00000000       0.00000000       0.00000000    -312.71072388
Er       0.00000000       0.00000000       0.69595960       0.00000000       0.00000000     312.71072388
2
Properties=species:S:1:pos:R:3:forces:R:3 energy=18.94328498223391 pbc="F F F"
Er       0.00000000       0.00000000       0.00000000       0.00000000       0.00000000    -184.16903687
Er       0.00000000       0.00000000       0.75555556       0.00000000       0.00000000     184.16903687
2
Properties=species:S:1:pos:R:3:forces:R:3 energy=10.359487679455388 pbc="F F F"
Er       0.00000000       0.00000000       0.00000000       0.00000000       0.00000000    -110.50283051
Er       0.00000000       0.00000000       0.81515152       0.00000000       0.00000000     110.50283051
2
Properties=species:S:1:pos:R:3:forces:R:3 energy=5.17796504864537 pbc="F F F"
Er       0.00000000       0.00000000       0.00000000       0.00000000       0.00000000     -67.11817932
Er       0.00000000       0.00000000       0.87474747       0.00000000       0.00000000      67.11817932
2
Properties=species:S:1:pos:R:3:forces:R:3 energy=2.0174285867040496 pbc="F F F"
Er       0.00000000       0.00000000       0.00000000       0.00000000       0.00000000     -41.14026260
Er       0.00000000       0.00000000       0.93434343       0.00000000       0.00000000      41.14026260
2
Properties=species:S:1:pos:R:3:forces:R:3 energy=0.0697518820603324 pbc="F F F"
Er       0.00000000       0.00000000       0.00000000       0.00000000       0.00000000     -25.56063843
Er       0.00000000       0.00000000       0.99393939       0.00000000       0.00000000      25.56063843
2
Properties=species:S:1:pos:R:3:forces:R:3 energy=-1.1561348463156653 pbc="F F F"
Er       0.00000000       0.00000000       0.00000000       0.00000000       0.00000000     -16.41594315
Er       0.00000000       0.00000000       1.05353535       0.00000000       0.00000000      16.41594315
2
Properties=species:S:1:pos:R:3:forces:R:3 energy=-1.9625491543912312 pbc="F F F"
Er       0.00000000       0.00000000       0.00000000       0.00000000       0.00000000     -11.07618904
Er       0.00000000       0.00000000       1.11313131       0.00000000       0.00000000      11.07618904
2
Properties=species:S:1:pos:R:3:forces:R:3 energy=-2.50555766026517 pbc="F F F"
Er       0.00000000       0.00000000       0.00000000       0.00000000       0.00000000      -7.27361488
Er       0.00000000       0.00000000       1.17272727       0.00000000       0.00000000       7.27361488
2
Properties=species:S:1:pos:R:3:forces:R:3 energy=-2.8455243085308686 pbc="F F F"
Er       0.00000000       0.00000000       0.00000000       0.00000000       0.00000000      -4.30934906
Er       0.00000000       0.00000000       1.23232323       0.00000000       0.00000000       4.30934906
2
Properties=species:S:1:pos:R:3:forces:R:3 energy=-3.0402795952888906 pbc="F F F"
Er       0.00000000       0.00000000       0.00000000       0.00000000       0.00000000      -2.38029099
Er       0.00000000       0.00000000       1.29191919       0.00000000       0.00000000       2.38029099
2
Properties=species:S:1:pos:R:3:forces:R:3 energy=-3.1448509547478807 pbc="F F F"
Er       0.00000000       0.00000000       0.00000000       0.00000000       0.00000000      -1.24954855
Er       0.00000000       0.00000000       1.35151515       0.00000000       0.00000000       1.24954855
2
Properties=species:S:1:pos:R:3:forces:R:3 energy=-3.2036422646985674 pbc="F F F"
Er       0.00000000       0.00000000       0.00000000       0.00000000       0.00000000      -0.84418905
Er       0.00000000       0.00000000       1.41111111       0.00000000       0.00000000       0.84418905
2
Properties=species:S:1:pos:R:3:forces:R:3 energy=-3.2587279036942975 pbc="F F F"
Er       0.00000000       0.00000000       0.00000000       0.00000000       0.00000000      -1.09774852
Er       0.00000000       0.00000000       1.47070707       0.00000000       0.00000000       1.09774852
2
Properties=species:S:1:pos:R:3:forces:R:3 energy=-3.3417940130080757 pbc="F F F"
Er       0.00000000       0.00000000       0.00000000       0.00000000       0.00000000      -1.70921898
Er       0.00000000       0.00000000       1.53030303       0.00000000       0.00000000       1.70921898
2
Properties=species:S:1:pos:R:3:forces:R:3 energy=-3.4588193013064337 pbc="F F F"
Er       0.00000000       0.00000000       0.00000000       0.00000000       0.00000000      -2.14669943
Er       0.00000000       0.00000000       1.58989899       0.00000000       0.00000000       2.14669943
2
Properties=species:S:1:pos:R:3:forces:R:3 energy=-3.5894257041456537 pbc="F F F"
Er       0.00000000       0.00000000       0.00000000       0.00000000       0.00000000      -2.20313478
Er       0.00000000       0.00000000       1.64949495       0.00000000       0.00000000       2.20313478
2
Properties=species:S:1:pos:R:3:forces:R:3 energy=-3.723067300865586 pbc="F F F"
Er       0.00000000       0.00000000       0.00000000       0.00000000       0.00000000      -2.32183695
Er       0.00000000       0.00000000       1.70909091       0.00000000       0.00000000       2.32183695
2
Properties=species:S:1:pos:R:3:forces:R:3 energy=-3.8698974080825232 pbc="F F F"
Er       0.00000000       0.00000000       0.00000000       0.00000000       0.00000000      -2.61676407
Er       0.00000000       0.00000000       1.76868687       0.00000000       0.00000000       2.61676407
2
Properties=species:S:1:pos:R:3:forces:R:3 energy=-4.033832751206753 pbc="F F F"
Er       0.00000000       0.00000000       0.00000000       0.00000000       0.00000000      -2.86038256
Er       0.00000000       0.00000000       1.82828283       0.00000000       0.00000000       2.86038256
2
Properties=species:S:1:pos:R:3:forces:R:3 energy=-4.207373833482865 pbc="F F F"
Er       0.00000000       0.00000000       0.00000000       0.00000000       0.00000000      -2.93626499
Er       0.00000000       0.00000000       1.88787879       0.00000000       0.00000000       2.93626499
2
Properties=species:S:1:pos:R:3:forces:R:3 energy=-4.381495730743782 pbc="F F F"
Er       0.00000000       0.00000000       0.00000000       0.00000000       0.00000000      -2.89694381
Er       0.00000000       0.00000000       1.94747475       0.00000000       0.00000000       2.89694381
2
Properties=species:S:1:pos:R:3:forces:R:3 energy=-4.552421061063296 pbc="F F F"
Er       0.00000000       0.00000000       0.00000000       0.00000000       0.00000000      -2.84336114
Er       0.00000000       0.00000000       2.00707071       0.00000000       0.00000000       2.84336114
2
Properties=species:S:1:pos:R:3:forces:R:3 energy=-4.721240435049429 pbc="F F F"
Er       0.00000000       0.00000000       0.00000000       0.00000000       0.00000000      -2.83008361
Er       0.00000000       0.00000000       2.06666667       0.00000000       0.00000000       2.83008361
2
Properties=species:S:1:pos:R:3:forces:R:3 energy=-4.89050022181162 pbc="F F F"
Er       0.00000000       0.00000000       0.00000000       0.00000000       0.00000000      -2.85349631
Er       0.00000000       0.00000000       2.12626263       0.00000000       0.00000000       2.85349631
2
Properties=species:S:1:pos:R:3:forces:R:3 energy=-5.0612789843160515 pbc="F F F"
Er       0.00000000       0.00000000       0.00000000       0.00000000       0.00000000      -2.87287545
Er       0.00000000       0.00000000       2.18585859       0.00000000       0.00000000       2.87287545
2
Properties=species:S:1:pos:R:3:forces:R:3 energy=-5.231930186512351 pbc="F F F"
Er       0.00000000       0.00000000       0.00000000       0.00000000       0.00000000      -2.84312868
Er       0.00000000       0.00000000       2.24545455       0.00000000       0.00000000       2.84312868
2
Properties=species:S:1:pos:R:3:forces:R:3 energy=-5.398696697046342 pbc="F F F"
Er       0.00000000       0.00000000       0.00000000       0.00000000       0.00000000      -2.74067807
Er       0.00000000       0.00000000       2.30505051       0.00000000       0.00000000       2.74067807
2
Properties=species:S:1:pos:R:3:forces:R:3 energy=-5.5571151633899705 pbc="F F F"
Er       0.00000000       0.00000000       0.00000000       0.00000000       0.00000000      -2.56406093
Er       0.00000000       0.00000000       2.36464646       0.00000000       0.00000000       2.56406093
2
Properties=species:S:1:pos:R:3:forces:R:3 energy=-5.70305544081846 pbc="F F F"
Er       0.00000000       0.00000000       0.00000000       0.00000000       0.00000000      -2.32454586
Er       0.00000000       0.00000000       2.42424242       0.00000000       0.00000000       2.32454586
2
Properties=species:S:1:pos:R:3:forces:R:3 energy=-5.833344422126125 pbc="F F F"
Er       0.00000000       0.00000000       0.00000000       0.00000000       0.00000000      -2.04313421
Er       0.00000000       0.00000000       2.48383838       0.00000000       0.00000000       2.04313421
2
Properties=species:S:1:pos:R:3:forces:R:3 energy=-5.94633605609923 pbc="F F F"
Er       0.00000000       0.00000000       0.00000000       0.00000000       0.00000000      -1.74948168
Er       0.00000000       0.00000000       2.54343434       0.00000000       0.00000000       1.74948168
2
Properties=species:S:1:pos:R:3:forces:R:3 energy=-6.0422639836016785 pbc="F F F"
Er       0.00000000       0.00000000       0.00000000       0.00000000       0.00000000      -1.47550046
Er       0.00000000       0.00000000       2.60303030       0.00000000       0.00000000       1.47550046
2
Properties=species:S:1:pos:R:3:forces:R:3 energy=-6.123099579486041 pbc="F F F"
Er       0.00000000       0.00000000       0.00000000       0.00000000       0.00000000      -1.24616003
Er       0.00000000       0.00000000       2.66262626       0.00000000       0.00000000       1.24616003
2
Properties=species:S:1:pos:R:3:forces:R:3 energy=-6.191930202952602 pbc="F F F"
Er       0.00000000       0.00000000       0.00000000       0.00000000       0.00000000      -1.07345068
Er       0.00000000       0.00000000       2.72222222       0.00000000       0.00000000       1.07345068
2
Properties=species:S:1:pos:R:3:forces:R:3 energy=-6.252131458927877 pbc="F F F"
Er       0.00000000       0.00000000       0.00000000       0.00000000       0.00000000      -0.95500386
Er       0.00000000       0.00000000       2.78181818       0.00000000       0.00000000       0.95500386
2
Properties=species:S:1:pos:R:3:forces:R:3 energy=-6.306553165679636 pbc="F F F"
Er       0.00000000       0.00000000       0.00000000       0.00000000       0.00000000      -0.87623882
Er       0.00000000       0.00000000       2.84141414       0.00000000       0.00000000       0.87623882
2
Properties=species:S:1:pos:R:3:forces:R:3 energy=-6.356930017431418 pbc="F F F"
Er       0.00000000       0.00000000       0.00000000       0.00000000       0.00000000      -0.81545025
Er       0.00000000       0.00000000       2.90101010       0.00000000       0.00000000       0.81545025
2
Properties=species:S:1:pos:R:3:forces:R:3 energy=-6.403676186260758 pbc="F F F"
Er       0.00000000       0.00000000       0.00000000       0.00000000       0.00000000      -0.75133681
Er       0.00000000       0.00000000       2.96060606       0.00000000       0.00000000       0.75133681
2
Properties=species:S:1:pos:R:3:forces:R:3 energy=-6.446143053574956 pbc="F F F"
Er       0.00000000       0.00000000       0.00000000       0.00000000       0.00000000      -0.67055827
Er       0.00000000       0.00000000       3.02020202       0.00000000       0.00000000       0.67055827
2
Properties=species:S:1:pos:R:3:forces:R:3 energy=-6.4832339685937415 pbc="F F F"
Er       0.00000000       0.00000000       0.00000000       0.00000000       0.00000000      -0.57167172
Er       0.00000000       0.00000000       3.07979798       0.00000000       0.00000000       0.57167172
2
Properties=species:S:1:pos:R:3:forces:R:3 energy=-6.514095952324165 pbc="F F F"
Er       0.00000000       0.00000000       0.00000000       0.00000000       0.00000000      -0.46354988
Er       0.00000000       0.00000000       3.13939394       0.00000000       0.00000000       0.46354988
2
Properties=species:S:1:pos:R:3:forces:R:3 energy=-6.538571351048435 pbc="F F F"
Er       0.00000000       0.00000000       0.00000000       0.00000000       0.00000000      -0.35967818
Er       0.00000000       0.00000000       3.19898990       0.00000000       0.00000000       0.35967818
2
Properties=species:S:1:pos:R:3:forces:R:3 energy=-6.557286524707679 pbc="F F F"
Er       0.00000000       0.00000000       0.00000000       0.00000000       0.00000000      -0.27172267
Er       0.00000000       0.00000000       3.25858586       0.00000000       0.00000000       0.27172267
2
Properties=species:S:1:pos:R:3:forces:R:3 energy=-6.571392948323472 pbc="F F F"
Er       0.00000000       0.00000000       0.00000000       0.00000000       0.00000000      -0.20538998
Er       0.00000000       0.00000000       3.31818182       0.00000000       0.00000000       0.20538998
2
Properties=species:S:1:pos:R:3:forces:R:3 energy=-6.582180118268017 pbc="F F F"
Er       0.00000000       0.00000000       0.00000000       0.00000000       0.00000000      -0.15967037
Er       0.00000000       0.00000000       3.37777778       0.00000000       0.00000000       0.15967037
2
Properties=species:S:1:pos:R:3:forces:R:3 energy=-6.590720219882263 pbc="F F F"
Er       0.00000000       0.00000000       0.00000000       0.00000000       0.00000000      -0.12880100
Er       0.00000000       0.00000000       3.43737374       0.00000000       0.00000000       0.12880100
2
Properties=species:S:1:pos:R:3:forces:R:3 energy=-6.597681350021733 pbc="F F F"
Er       0.00000000       0.00000000       0.00000000       0.00000000       0.00000000      -0.10548945
Er       0.00000000       0.00000000       3.49696970       0.00000000       0.00000000       0.10548945
2
Properties=species:S:1:pos:R:3:forces:R:3 energy=-6.603323437606339 pbc="F F F"
Er       0.00000000       0.00000000       0.00000000       0.00000000       0.00000000      -0.08377995
Er       0.00000000       0.00000000       3.55656566       0.00000000       0.00000000       0.08377995
2
Properties=species:S:1:pos:R:3:forces:R:3 energy=-6.607634787102048 pbc="F F F"
Er       0.00000000       0.00000000       0.00000000       0.00000000       0.00000000      -0.06053835
Er       0.00000000       0.00000000       3.61616162       0.00000000       0.00000000       0.06053835
2
Properties=species:S:1:pos:R:3:forces:R:3 energy=-6.610497883139573 pbc="F F F"
Er       0.00000000       0.00000000       0.00000000       0.00000000       0.00000000      -0.03523936
Er       0.00000000       0.00000000       3.67575758       0.00000000       0.00000000       0.03523936
2
Properties=species:S:1:pos:R:3:forces:R:3 energy=-6.6118073103404535 pbc="F F F"
Er       0.00000000       0.00000000       0.00000000       0.00000000       0.00000000      -0.00852112
Er       0.00000000       0.00000000       3.73535354       0.00000000       0.00000000       0.00852112
2
Properties=species:S:1:pos:R:3:forces:R:3 energy=-6.6114907831733465 pbc="F F F"
Er       0.00000000       0.00000000       0.00000000       0.00000000       0.00000000       0.01938110
Er       0.00000000       0.00000000       3.79494949       0.00000000       0.00000000      -0.01938110
2
Properties=species:S:1:pos:R:3:forces:R:3 energy=-6.60945681590769 pbc="F F F"
Er       0.00000000       0.00000000       0.00000000       0.00000000       0.00000000       0.04933777
Er       0.00000000       0.00000000       3.85454545       0.00000000       0.00000000      -0.04933777
2
Properties=species:S:1:pos:R:3:forces:R:3 energy=-6.605538162725568 pbc="F F F"
Er       0.00000000       0.00000000       0.00000000       0.00000000       0.00000000       0.08289798
Er       0.00000000       0.00000000       3.91414141       0.00000000       0.00000000      -0.08289798
2
Properties=species:S:1:pos:R:3:forces:R:3 energy=-6.5994798271006685 pbc="F F F"
Er       0.00000000       0.00000000       0.00000000       0.00000000       0.00000000       0.12125189
Er       0.00000000       0.00000000       3.97373737       0.00000000       0.00000000      -0.12125189
2
Properties=species:S:1:pos:R:3:forces:R:3 energy=-6.590991176432697 pbc="F F F"
Er       0.00000000       0.00000000       0.00000000       0.00000000       0.00000000       0.16432896
Er       0.00000000       0.00000000       4.03333333       0.00000000       0.00000000      -0.16432896
2
Properties=species:S:1:pos:R:3:forces:R:3 energy=-6.579831270556122 pbc="F F F"
Er       0.00000000       0.00000000       0.00000000       0.00000000       0.00000000       0.21047805
Er       0.00000000       0.00000000       4.09292929       0.00000000       0.00000000      -0.21047805
2
Properties=species:S:1:pos:R:3:forces:R:3 energy=-6.565900916654284 pbc="F F F"
Er       0.00000000       0.00000000       0.00000000       0.00000000       0.00000000       0.25673732
Er       0.00000000       0.00000000       4.15252525       0.00000000       0.00000000      -0.25673732
2
Properties=species:S:1:pos:R:3:forces:R:3 energy=-6.549299056421307 pbc="F F F"
Er       0.00000000       0.00000000       0.00000000       0.00000000       0.00000000       0.29953918
Er       0.00000000       0.00000000       4.21212121       0.00000000       0.00000000      -0.29953918
2
Properties=species:S:1:pos:R:3:forces:R:3 energy=-6.530334153133094 pbc="F F F"
Er       0.00000000       0.00000000       0.00000000       0.00000000       0.00000000       0.33553785
Er       0.00000000       0.00000000       4.27171717       0.00000000       0.00000000      -0.33553785
2
Properties=species:S:1:pos:R:3:forces:R:3 energy=-6.509489509247663 pbc="F F F"
Er       0.00000000       0.00000000       0.00000000       0.00000000       0.00000000       0.36234820
Er       0.00000000       0.00000000       4.33131313       0.00000000       0.00000000      -0.36234820
2
Properties=species:S:1:pos:R:3:forces:R:3 energy=-6.48734748097522 pbc="F F F"
Er       0.00000000       0.00000000       0.00000000       0.00000000       0.00000000       0.37901637
Er       0.00000000       0.00000000       4.39090909       0.00000000       0.00000000      -0.37901637
2
Properties=species:S:1:pos:R:3:forces:R:3 energy=-6.464503189759451 pbc="F F F"
Er       0.00000000       0.00000000       0.00000000       0.00000000       0.00000000       0.38616347
Er       0.00000000       0.00000000       4.45050505       0.00000000       0.00000000      -0.38616347
2
Properties=species:S:1:pos:R:3:forces:R:3 energy=-6.441470686727668 pbc="F F F"
Er       0.00000000       0.00000000       0.00000000       0.00000000       0.00000000       0.38576922
Er       0.00000000       0.00000000       4.51010101       0.00000000       0.00000000      -0.38576922
2
Properties=species:S:1:pos:R:3:forces:R:3 energy=-6.4186166216406635 pbc="F F F"
Er       0.00000000       0.00000000       0.00000000       0.00000000       0.00000000       0.38065958
Er       0.00000000       0.00000000       4.56969697       0.00000000       0.00000000      -0.38065958
2
Properties=species:S:1:pos:R:3:forces:R:3 energy=-6.396133227901444 pbc="F F F"
Er       0.00000000       0.00000000       0.00000000       0.00000000       0.00000000       0.37380049
Er       0.00000000       0.00000000       4.62929293       0.00000000       0.00000000      -0.37380049
2
Properties=species:S:1:pos:R:3:forces:R:3 energy=-6.374050192799033 pbc="F F F"
Er       0.00000000       0.00000000       0.00000000       0.00000000       0.00000000       0.36756742
Er       0.00000000       0.00000000       4.68888889       0.00000000       0.00000000      -0.36756742
2
Properties=species:S:1:pos:R:3:forces:R:3 energy=-6.352284782430878 pbc="F F F"
Er       0.00000000       0.00000000       0.00000000       0.00000000       0.00000000       0.36317447
Er       0.00000000       0.00000000       4.74848485       0.00000000       0.00000000      -0.36317447
2
Properties=species:S:1:pos:R:3:forces:R:3 energy=-6.330730037570187 pbc="F F F"
Er       0.00000000       0.00000000       0.00000000       0.00000000       0.00000000       0.36036822
Er       0.00000000       0.00000000       4.80808081       0.00000000       0.00000000      -0.36036822
2
Properties=species:S:1:pos:R:3:forces:R:3 energy=-6.309333063658893 pbc="F F F"
Er       0.00000000       0.00000000       0.00000000       0.00000000       0.00000000       0.35746992
Er       0.00000000       0.00000000       4.86767677       0.00000000       0.00000000      -0.35746992
2
Properties=species:S:1:pos:R:3:forces:R:3 energy=-6.2881769897780675 pbc="F F F"
Er       0.00000000       0.00000000       0.00000000       0.00000000       0.00000000       0.35176674
Er       0.00000000       0.00000000       4.92727273       0.00000000       0.00000000      -0.35176674
2
Properties=species:S:1:pos:R:3:forces:R:3 energy=-6.267520978619698 pbc="F F F"
Er       0.00000000       0.00000000       0.00000000       0.00000000       0.00000000       0.34024340
Er       0.00000000       0.00000000       4.98686869       0.00000000       0.00000000      -0.34024340
2
Properties=species:S:1:pos:R:3:forces:R:3 energy=-6.247787427911152 pbc="F F F"
Er       0.00000000       0.00000000       0.00000000       0.00000000       0.00000000       0.32062098
Er       0.00000000       0.00000000       5.04646465       0.00000000       0.00000000      -0.32062098
2
Properties=species:S:1:pos:R:3:forces:R:3 energy=-6.2294759433217175 pbc="F F F"
Er       0.00000000       0.00000000       0.00000000       0.00000000       0.00000000       0.29259831
Er       0.00000000       0.00000000       5.10606061       0.00000000       0.00000000      -0.29259831
2
Properties=species:S:1:pos:R:3:forces:R:3 energy=-6.213028005408707 pbc="F F F"
Er       0.00000000       0.00000000       0.00000000       0.00000000       0.00000000       0.25868568
Er       0.00000000       0.00000000       5.16565657       0.00000000       0.00000000      -0.25868568
2
Properties=species:S:1:pos:R:3:forces:R:3 energy=-6.198662848936005 pbc="F F F"
Er       0.00000000       0.00000000       0.00000000       0.00000000       0.00000000       0.22366817
Er       0.00000000       0.00000000       5.22525253       0.00000000       0.00000000      -0.22366817
2
Properties=species:S:1:pos:R:3:forces:R:3 energy=-6.1863114629412665 pbc="F F F"
Er       0.00000000       0.00000000       0.00000000       0.00000000       0.00000000       0.19139756
Er       0.00000000       0.00000000       5.28484848       0.00000000       0.00000000      -0.19139756
2
Properties=species:S:1:pos:R:3:forces:R:3 energy=-6.175823156260083 pbc="F F F"
Er       0.00000000       0.00000000       0.00000000       0.00000000       0.00000000       0.16025773
Er       0.00000000       0.00000000       5.34444444       0.00000000       0.00000000      -0.16025773
2
Properties=species:S:1:pos:R:3:forces:R:3 energy=-6.167300043785273 pbc="F F F"
Er       0.00000000       0.00000000       0.00000000       0.00000000       0.00000000       0.12493572
Er       0.00000000       0.00000000       5.40404040       0.00000000       0.00000000      -0.12493572
2
Properties=species:S:1:pos:R:3:forces:R:3 energy=-6.160920673739137 pbc="F F F"
Er       0.00000000       0.00000000       0.00000000       0.00000000       0.00000000       0.09067303
Er       0.00000000       0.00000000       5.46363636       0.00000000       0.00000000      -0.09067303
2
Properties=species:S:1:pos:R:3:forces:R:3 energy=-6.156165930896373 pbc="F F F"
Er       0.00000000       0.00000000       0.00000000       0.00000000       0.00000000       0.07196999
Er       0.00000000       0.00000000       5.52323232       0.00000000       0.00000000      -0.07196999
2
Properties=species:S:1:pos:R:3:forces:R:3 energy=-6.152101260825286 pbc="F F F"
Er       0.00000000       0.00000000       0.00000000       0.00000000       0.00000000       0.06524859
Er       0.00000000       0.00000000       5.58282828       0.00000000       0.00000000      -0.06524859
2
Properties=species:S:1:pos:R:3:forces:R:3 energy=-6.148352177343163 pbc="F F F"
Er       0.00000000       0.00000000       0.00000000       0.00000000       0.00000000       0.06111057
Er       0.00000000       0.00000000       5.64242424       0.00000000       0.00000000      -0.06111057
2
Properties=species:S:1:pos:R:3:forces:R:3 energy=-6.144627406351139 pbc="F F F"
Er       0.00000000       0.00000000       0.00000000       0.00000000       0.00000000       0.06655772
Er       0.00000000       0.00000000       5.70202020       0.00000000       0.00000000      -0.06655772
2
Properties=species:S:1:pos:R:3:forces:R:3 energy=-6.1400845783721865 pbc="F F F"
Er       0.00000000       0.00000000       0.00000000       0.00000000       0.00000000       0.08768596
Er       0.00000000       0.00000000       5.76161616       0.00000000       0.00000000      -0.08768596
2
Properties=species:S:1:pos:R:3:forces:R:3 energy=-6.134324345326952 pbc="F F F"
Er       0.00000000       0.00000000       0.00000000       0.00000000       0.00000000       0.10102060
Er       0.00000000       0.00000000       5.82121212       0.00000000       0.00000000      -0.10102060
2
Properties=species:S:1:pos:R:3:forces:R:3 energy=-6.1287513117971315 pbc="F F F"
Er       0.00000000       0.00000000       0.00000000       0.00000000       0.00000000       0.08123511
Er       0.00000000       0.00000000       5.88080808       0.00000000       0.00000000      -0.08123511
2
Properties=species:S:1:pos:R:3:forces:R:3 energy=-6.124912130816246 pbc="F F F"
Er       0.00000000       0.00000000       0.00000000       0.00000000       0.00000000       0.04765926
Er       0.00000000       0.00000000       5.94040404       0.00000000       0.00000000      -0.04765926
2
Properties=species:S:1:pos:R:3:forces:R:3 energy=-6.122682136506508 pbc="F F F"
Er       0.00000000       0.00000000       0.00000000       0.00000000       0.00000000       0.03216203
Er       0.00000000       0.00000000       6.00000000       0.00000000       0.00000000      -0.03216203
