2
Properties=species:S:1:pos:R:3:forces:R:3 energy=60624.37368106513 pbc="F F F"
Eu       0.00000000       0.00000000       0.00000000       0.00000000       0.00000000 -1502270.75000000
Eu       0.00000000       0.00000000       0.10000000       0.00000000       0.00000000 1502270.75000000
2
Properties=species:S:1:pos:R:3:forces:R:3 energy=17090.440087315135 pbc="F F F"
Eu       0.00000000       0.00000000       0.00000000       0.00000000       0.00000000 -316374.59375000
Eu       0.00000000       0.00000000       0.15959596       0.00000000       0.00000000  316374.59375000
2
Properties=species:S:1:pos:R:3:forces:R:3 energy=6287.6744623151335 pbc="F F F"
Eu       0.00000000       0.00000000       0.00000000       0.00000000       0.00000000  -96579.00000000
Eu       0.00000000       0.00000000       0.21919192       0.00000000       0.00000000   96579.00000000
2
Properties=species:S:1:pos:R:3:forces:R:3 energy=2671.538720127634 pbc="F F F"
Eu       0.00000000       0.00000000       0.00000000       0.00000000       0.00000000  -36067.16015625
Eu       0.00000000       0.00000000       0.27878788       0.00000000       0.00000000   36067.16015625
2
Properties=species:S:1:pos:R:3:forces:R:3 energy=1244.2574701308017 pbc="F F F"
Eu       0.00000000       0.00000000       0.00000000       0.00000000       0.00000000  -15183.41406250
Eu       0.00000000       0.00000000       0.33838384       0.00000000       0.00000000   15183.41406250
2
Properties=species:S:1:pos:R:3:forces:R:3 energy=620.759972572208 pbc="F F F"
Eu       0.00000000       0.00000000       0.00000000       0.00000000       0.00000000   -6928.93847656
Eu       0.00000000       0.00000000       0.39797980       0.00000000       0.00000000    6928.93847656
2
Properties=species:S:1:pos:R:3:forces:R:3 energy=328.05959415740705 pbc="F F F"
Eu       0.00000000       0.00000000       0.00000000       0.00000000       0.00000000   -3365.33349609
Eu       0.00000000       0.00000000       0.45757576       0.00000000       0.00000000    3365.33349609
2
Properties=species:S:1:pos:R:3:forces:R:3 energy=182.43109989787956 pbc="F F F"
Eu       0.00000000       0.00000000       0.00000000       0.00000000       0.00000000   -1723.86743164
Eu       0.00000000       0.00000000       0.51717172       0.00000000       0.00000000    1723.86743164
2
Properties=species:S:1:pos:R:3:forces:R:3 energy=106.19001103385989 pbc="F F F"
Eu       0.00000000       0.00000000       0.00000000       0.00000000       0.00000000    -926.52526855
Eu       0.00000000       0.00000000       0.57676768       0.00000000       0.00000000     926.52526855
2
Properties=species:S:1:pos:R:3:forces:R:3 energy=64.36704351723431 pbc="F F F"
Eu       0.00000000       0.00000000       0.00000000       0.00000000       0.00000000    -520.87420654
Eu       0.00000000       0.00000000       0.63636364       0.00000000       0.00000000     520.87420654
2
Properties=species:S:1:pos:R:3:forces:R:3 energy=40.381714861924834 pbc="F F F"
Eu       0.00000000       0.00000000       0.00000000       0.00000000       0.00000000    -305.98995972
Eu       0.00000000       0.00000000       0.69595960       0.00000000       0.00000000     305.98995972
2
Properties=species:S:1:pos:R:3:forces:R:3 energy=25.993802143358916 pbc="F F F"
Eu       0.00000000       0.00000000       0.00000000       0.00000000       0.00000000    -188.32250977
Eu       0.00000000       0.00000000       0.75555556       0.00000000       0.00000000     188.32250977
2
Properties=species:S:1:pos:R:3:forces:R:3 energy=16.920933834204813 pbc="F F F"
Eu       0.00000000       0.00000000       0.00000000       0.00000000       0.00000000    -122.41079712
Eu       0.00000000       0.00000000       0.81515152       0.00000000       0.00000000     122.41079712
2
Properties=species:S:1:pos:R:3:forces:R:3 energy=10.839072398421754 pbc="F F F"
Eu       0.00000000       0.00000000       0.00000000       0.00000000       0.00000000     -85.24777985
Eu       0.00000000       0.00000000       0.87474747       0.00000000       0.00000000      85.24777985
2
Properties=species:S:1:pos:R:3:forces:R:3 energy=6.432908317809251 pbc="F F F"
Eu       0.00000000       0.00000000       0.00000000       0.00000000       0.00000000     -64.72579193
Eu       0.00000000       0.00000000       0.93434343       0.00000000       0.00000000      64.72579193
2
Properties=species:S:1:pos:R:3:forces:R:3 energy=2.926984210165155 pbc="F F F"
Eu       0.00000000       0.00000000       0.00000000       0.00000000       0.00000000     -54.22495270
Eu       0.00000000       0.00000000       0.99393939       0.00000000       0.00000000      54.22495270
2
Properties=species:S:1:pos:R:3:forces:R:3 energy=-0.15186732810501713 pbc="F F F"
Eu       0.00000000       0.00000000       0.00000000       0.00000000       0.00000000     -49.87568665
Eu       0.00000000       0.00000000       1.05353535       0.00000000       0.00000000      49.87568665
2
Properties=species:S:1:pos:R:3:forces:R:3 energy=-3.0801384031654258 pbc="F F F"
Eu       0.00000000       0.00000000       0.00000000       0.00000000       0.00000000     -48.62257004
Eu       0.00000000       0.00000000       1.11313131       0.00000000       0.00000000      48.62257004
2
Properties=species:S:1:pos:R:3:forces:R:3 energy=-5.929382235798249 pbc="F F F"
Eu       0.00000000       0.00000000       0.00000000       0.00000000       0.00000000     -46.46265793
Eu       0.00000000       0.00000000       1.17272727       0.00000000       0.00000000      46.46265793
2
Properties=species:S:1:pos:R:3:forces:R:3 energy=-8.532577055592744 pbc="F F F"
Eu       0.00000000       0.00000000       0.00000000       0.00000000       0.00000000     -40.23764801
Eu       0.00000000       0.00000000       1.23232323       0.00000000       0.00000000      40.23764801
2
Properties=species:S:1:pos:R:3:forces:R:3 energy=-10.675784133636073 pbc="F F F"
Eu       0.00000000       0.00000000       0.00000000       0.00000000       0.00000000     -31.44114304
Eu       0.00000000       0.00000000       1.29191919       0.00000000       0.00000000      31.44114304
2
Properties=species:S:1:pos:R:3:forces:R:3 energy=-12.25794829298634 pbc="F F F"
Eu       0.00000000       0.00000000       0.00000000       0.00000000       0.00000000     -21.56445312
Eu       0.00000000       0.00000000       1.35151515       0.00000000       0.00000000      21.56445312
2
Properties=species:S:1:pos:R:3:forces:R:3 energy=-13.24819430864296 pbc="F F F"
Eu       0.00000000       0.00000000       0.00000000       0.00000000       0.00000000     -11.69270039
Eu       0.00000000       0.00000000       1.41111111       0.00000000       0.00000000      11.69270039
2
Properties=species:S:1:pos:R:3:forces:R:3 energy=-13.649404146376247 pbc="F F F"
Eu       0.00000000       0.00000000       0.00000000       0.00000000       0.00000000      -1.89130116
Eu       0.00000000       0.00000000       1.47070707       0.00000000       0.00000000       1.89130116
2
Properties=species:S:1:pos:R:3:forces:R:3 energy=-13.543327687416818 pbc="F F F"
Eu       0.00000000       0.00000000       0.00000000       0.00000000       0.00000000       4.40214252
Eu       0.00000000       0.00000000       1.53030303       0.00000000       0.00000000      -4.40214252
2
Properties=species:S:1:pos:R:3:forces:R:3 energy=-13.264366984437036 pbc="F F F"
Eu       0.00000000       0.00000000       0.00000000       0.00000000       0.00000000       3.93206835
Eu       0.00000000       0.00000000       1.58989899       0.00000000       0.00000000      -3.93206835
2
Properties=species:S:1:pos:R:3:forces:R:3 energy=-13.151484532179923 pbc="F F F"
Eu       0.00000000       0.00000000       0.00000000       0.00000000       0.00000000      -0.35803777
Eu       0.00000000       0.00000000       1.64949495       0.00000000       0.00000000       0.35803777
2
Properties=species:S:1:pos:R:3:forces:R:3 energy=-13.29151328014343 pbc="F F F"
Eu       0.00000000       0.00000000       0.00000000       0.00000000       0.00000000      -4.01643801
Eu       0.00000000       0.00000000       1.70909091       0.00000000       0.00000000       4.01643801
2
Properties=species:S:1:pos:R:3:forces:R:3 energy=-13.595496341588836 pbc="F F F"
Eu       0.00000000       0.00000000       0.00000000       0.00000000       0.00000000      -5.99923801
Eu       0.00000000       0.00000000       1.76868687       0.00000000       0.00000000       5.99923801
2
Properties=species:S:1:pos:R:3:forces:R:3 energy=-13.994590743106528 pbc="F F F"
Eu       0.00000000       0.00000000       0.00000000       0.00000000       0.00000000      -7.33543491
Eu       0.00000000       0.00000000       1.82828283       0.00000000       0.00000000       7.33543491
2
Properties=species:S:1:pos:R:3:forces:R:3 energy=-14.46308726911838 pbc="F F F"
Eu       0.00000000       0.00000000       0.00000000       0.00000000       0.00000000      -8.32488060
Eu       0.00000000       0.00000000       1.88787879       0.00000000       0.00000000       8.32488060
2
Properties=species:S:1:pos:R:3:forces:R:3 energy=-14.978819578789144 pbc="F F F"
Eu       0.00000000       0.00000000       0.00000000       0.00000000       0.00000000      -8.91295528
Eu       0.00000000       0.00000000       1.94747475       0.00000000       0.00000000       8.91295528
2
Properties=species:S:1:pos:R:3:forces:R:3 energy=-15.517335405625365 pbc="F F F"
Eu       0.00000000       0.00000000       0.00000000       0.00000000       0.00000000      -9.09529400
Eu       0.00000000       0.00000000       2.00707071       0.00000000       0.00000000       9.09529400
2
Properties=species:S:1:pos:R:3:forces:R:3 energy=-16.056078267297362 pbc="F F F"
Eu       0.00000000       0.00000000       0.00000000       0.00000000       0.00000000      -8.93452644
Eu       0.00000000       0.00000000       2.06666667       0.00000000       0.00000000       8.93452644
2
Properties=species:S:1:pos:R:3:forces:R:3 energy=-16.57707516061734 pbc="F F F"
Eu       0.00000000       0.00000000       0.00000000       0.00000000       0.00000000      -8.51181602
Eu       0.00000000       0.00000000       2.12626263       0.00000000       0.00000000       8.51181602
2
Properties=species:S:1:pos:R:3:forces:R:3 energy=-17.06655209140572 pbc="F F F"
Eu       0.00000000       0.00000000       0.00000000       0.00000000       0.00000000      -7.88367367
Eu       0.00000000       0.00000000       2.18585859       0.00000000       0.00000000       7.88367367
2
Properties=species:S:1:pos:R:3:forces:R:3 energy=-17.513364307559375 pbc="F F F"
Eu       0.00000000       0.00000000       0.00000000       0.00000000       0.00000000      -7.08621407
Eu       0.00000000       0.00000000       2.24545455       0.00000000       0.00000000       7.08621407
2
Properties=species:S:1:pos:R:3:forces:R:3 energy=-17.908800998557403 pbc="F F F"
Eu       0.00000000       0.00000000       0.00000000       0.00000000       0.00000000      -6.17033195
Eu       0.00000000       0.00000000       2.30505051       0.00000000       0.00000000       6.17033195
2
Properties=species:S:1:pos:R:3:forces:R:3 energy=-18.247979503955275 pbc="F F F"
Eu       0.00000000       0.00000000       0.00000000       0.00000000       0.00000000      -5.21205616
Eu       0.00000000       0.00000000       2.36464646       0.00000000       0.00000000       5.21205616
2
Properties=species:S:1:pos:R:3:forces:R:3 energy=-18.530736032525045 pbc="F F F"
Eu       0.00000000       0.00000000       0.00000000       0.00000000       0.00000000      -4.28821754
Eu       0.00000000       0.00000000       2.42424242       0.00000000       0.00000000       4.28821754
2
Properties=species:S:1:pos:R:3:forces:R:3 energy=-18.760887949158292 pbc="F F F"
Eu       0.00000000       0.00000000       0.00000000       0.00000000       0.00000000      -3.45352411
Eu       0.00000000       0.00000000       2.48383838       0.00000000       0.00000000       3.45352411
2
Properties=species:S:1:pos:R:3:forces:R:3 energy=-18.944730663766197 pbc="F F F"
Eu       0.00000000       0.00000000       0.00000000       0.00000000       0.00000000      -2.73710012
Eu       0.00000000       0.00000000       2.54343434       0.00000000       0.00000000       2.73710012
2
Properties=species:S:1:pos:R:3:forces:R:3 energy=-19.08968967749376 pbc="F F F"
Eu       0.00000000       0.00000000       0.00000000       0.00000000       0.00000000      -2.14919519
Eu       0.00000000       0.00000000       2.60303030       0.00000000       0.00000000       2.14919519
2
Properties=species:S:1:pos:R:3:forces:R:3 energy=-19.20339773326023 pbc="F F F"
Eu       0.00000000       0.00000000       0.00000000       0.00000000       0.00000000      -1.68690157
Eu       0.00000000       0.00000000       2.66262626       0.00000000       0.00000000       1.68690157
2
Properties=species:S:1:pos:R:3:forces:R:3 energy=-19.293003100776794 pbc="F F F"
Eu       0.00000000       0.00000000       0.00000000       0.00000000       0.00000000      -1.33756268
Eu       0.00000000       0.00000000       2.72222222       0.00000000       0.00000000       1.33756268
2
Properties=species:S:1:pos:R:3:forces:R:3 energy=-19.36468795184999 pbc="F F F"
Eu       0.00000000       0.00000000       0.00000000       0.00000000       0.00000000      -1.08199668
Eu       0.00000000       0.00000000       2.78181818       0.00000000       0.00000000       1.08199668
2
Properties=species:S:1:pos:R:3:forces:R:3 energy=-19.423396585216434 pbc="F F F"
Eu       0.00000000       0.00000000       0.00000000       0.00000000       0.00000000      -0.89830345
Eu       0.00000000       0.00000000       2.84141414       0.00000000       0.00000000       0.89830345
2
Properties=species:S:1:pos:R:3:forces:R:3 energy=-19.47276664446293 pbc="F F F"
Eu       0.00000000       0.00000000       0.00000000       0.00000000       0.00000000      -0.76540321
Eu       0.00000000       0.00000000       2.90101010       0.00000000       0.00000000       0.76540321
2
Properties=species:S:1:pos:R:3:forces:R:3 energy=-19.515280324107227 pbc="F F F"
Eu       0.00000000       0.00000000       0.00000000       0.00000000       0.00000000      -0.66557240
Eu       0.00000000       0.00000000       2.96060606       0.00000000       0.00000000       0.66557240
2
Properties=species:S:1:pos:R:3:forces:R:3 energy=-19.552494369355486 pbc="F F F"
Eu       0.00000000       0.00000000       0.00000000       0.00000000       0.00000000      -0.58585846
Eu       0.00000000       0.00000000       3.02020202       0.00000000       0.00000000       0.58585846
2
Properties=species:S:1:pos:R:3:forces:R:3 energy=-19.58534674328836 pbc="F F F"
Eu       0.00000000       0.00000000       0.00000000       0.00000000       0.00000000      -0.51824033
Eu       0.00000000       0.00000000       3.07979798       0.00000000       0.00000000       0.51824033
2
Properties=species:S:1:pos:R:3:forces:R:3 energy=-19.61442372408287 pbc="F F F"
Eu       0.00000000       0.00000000       0.00000000       0.00000000       0.00000000      -0.45870158
Eu       0.00000000       0.00000000       3.13939394       0.00000000       0.00000000       0.45870158
2
Properties=species:S:1:pos:R:3:forces:R:3 energy=-19.64015112263428 pbc="F F F"
Eu       0.00000000       0.00000000       0.00000000       0.00000000       0.00000000      -0.40578943
Eu       0.00000000       0.00000000       3.19898990       0.00000000       0.00000000       0.40578943
2
Properties=species:S:1:pos:R:3:forces:R:3 energy=-19.662918089125657 pbc="F F F"
Eu       0.00000000       0.00000000       0.00000000       0.00000000       0.00000000      -0.35941297
Eu       0.00000000       0.00000000       3.25858586       0.00000000       0.00000000       0.35941297
2
Properties=species:S:1:pos:R:3:forces:R:3 energy=-19.683134278006214 pbc="F F F"
Eu       0.00000000       0.00000000       0.00000000       0.00000000       0.00000000      -0.32031432
Eu       0.00000000       0.00000000       3.31818182       0.00000000       0.00000000       0.32031432
2
Properties=species:S:1:pos:R:3:forces:R:3 energy=-19.70127318158956 pbc="F F F"
Eu       0.00000000       0.00000000       0.00000000       0.00000000       0.00000000      -0.29007089
Eu       0.00000000       0.00000000       3.37777778       0.00000000       0.00000000       0.29007089
2
Properties=species:S:1:pos:R:3:forces:R:3 energy=-19.717928945932197 pbc="F F F"
Eu       0.00000000       0.00000000       0.00000000       0.00000000       0.00000000      -0.27085701
Eu       0.00000000       0.00000000       3.43737374       0.00000000       0.00000000       0.27085701
2
Properties=species:S:1:pos:R:3:forces:R:3 energy=-19.733797566350738 pbc="F F F"
Eu       0.00000000       0.00000000       0.00000000       0.00000000       0.00000000      -0.26351100
Eu       0.00000000       0.00000000       3.49696970       0.00000000       0.00000000       0.26351100
2
Properties=species:S:1:pos:R:3:forces:R:3 energy=-19.749463757045525 pbc="F F F"
Eu       0.00000000       0.00000000       0.00000000       0.00000000       0.00000000      -0.26209271
Eu       0.00000000       0.00000000       3.55656566       0.00000000       0.00000000       0.26209271
2
Properties=species:S:1:pos:R:3:forces:R:3 energy=-19.764781558577422 pbc="F F F"
Eu       0.00000000       0.00000000       0.00000000       0.00000000       0.00000000      -0.24747978
Eu       0.00000000       0.00000000       3.61616162       0.00000000       0.00000000       0.24747978
2
Properties=species:S:1:pos:R:3:forces:R:3 energy=-19.778182726875404 pbc="F F F"
Eu       0.00000000       0.00000000       0.00000000       0.00000000       0.00000000      -0.19438721
Eu       0.00000000       0.00000000       3.67575758       0.00000000       0.00000000       0.19438721
2
Properties=species:S:1:pos:R:3:forces:R:3 energy=-19.787081878304285 pbc="F F F"
Eu       0.00000000       0.00000000       0.00000000       0.00000000       0.00000000      -0.09889315
Eu       0.00000000       0.00000000       3.73535354       0.00000000       0.00000000       0.09889315
2
Properties=species:S:1:pos:R:3:forces:R:3 energy=-19.78967164501128 pbc="F F F"
Eu       0.00000000       0.00000000       0.00000000       0.00000000       0.00000000       0.01158892
Eu       0.00000000       0.00000000       3.79494949       0.00000000       0.00000000      -0.01158892
2
Properties=species:S:1:pos:R:3:forces:R:3 energy=-19.78599191307422 pbc="F F F"
Eu       0.00000000       0.00000000       0.00000000       0.00000000       0.00000000       0.10825279
Eu       0.00000000       0.00000000       3.85454545       0.00000000       0.00000000      -0.10825279
2
Properties=species:S:1:pos:R:3:forces:R:3 energy=-19.77722050666789 pbc="F F F"
Eu       0.00000000       0.00000000       0.00000000       0.00000000       0.00000000       0.18255951
Eu       0.00000000       0.00000000       3.91414141       0.00000000       0.00000000      -0.18255951
2
Properties=species:S:1:pos:R:3:forces:R:3 energy=-19.76459232502595 pbc="F F F"
Eu       0.00000000       0.00000000       0.00000000       0.00000000       0.00000000       0.23876861
Eu       0.00000000       0.00000000       3.97373737       0.00000000       0.00000000      -0.23876861
2
Properties=species:S:1:pos:R:3:forces:R:3 energy=-19.749010353585817 pbc="F F F"
Eu       0.00000000       0.00000000       0.00000000       0.00000000       0.00000000       0.28242788
Eu       0.00000000       0.00000000       4.03333333       0.00000000       0.00000000      -0.28242788
2
Properties=species:S:1:pos:R:3:forces:R:3 energy=-19.7311122009251 pbc="F F F"
Eu       0.00000000       0.00000000       0.00000000       0.00000000       0.00000000       0.31683823
Eu       0.00000000       0.00000000       4.09292929       0.00000000       0.00000000      -0.31683823
2
Properties=species:S:1:pos:R:3:forces:R:3 energy=-19.711394182296765 pbc="F F F"
Eu       0.00000000       0.00000000       0.00000000       0.00000000       0.00000000       0.34376666
Eu       0.00000000       0.00000000       4.15252525       0.00000000       0.00000000      -0.34376666
2
Properties=species:S:1:pos:R:3:forces:R:3 energy=-19.69026028392915 pbc="F F F"
Eu       0.00000000       0.00000000       0.00000000       0.00000000       0.00000000       0.36449522
Eu       0.00000000       0.00000000       4.21212121       0.00000000       0.00000000      -0.36449522
2
Properties=species:S:1:pos:R:3:forces:R:3 energy=-19.66804681623837 pbc="F F F"
Eu       0.00000000       0.00000000       0.00000000       0.00000000       0.00000000       0.38023895
Eu       0.00000000       0.00000000       4.27171717       0.00000000       0.00000000      -0.38023895
2
Properties=species:S:1:pos:R:3:forces:R:3 energy=-19.645015388819253 pbc="F F F"
Eu       0.00000000       0.00000000       0.00000000       0.00000000       0.00000000       0.39213723
Eu       0.00000000       0.00000000       4.33131313       0.00000000       0.00000000      -0.39213723
2
Properties=species:S:1:pos:R:3:forces:R:3 energy=-19.621366836830887 pbc="F F F"
Eu       0.00000000       0.00000000       0.00000000       0.00000000       0.00000000       0.40110427
Eu       0.00000000       0.00000000       4.39090909       0.00000000       0.00000000      -0.40110427
2
Properties=species:S:1:pos:R:3:forces:R:3 energy=-19.597253722821314 pbc="F F F"
Eu       0.00000000       0.00000000       0.00000000       0.00000000       0.00000000       0.40770420
Eu       0.00000000       0.00000000       4.45050505       0.00000000       0.00000000      -0.40770420
2
Properties=species:S:1:pos:R:3:forces:R:3 energy=-19.572814776389194 pbc="F F F"
Eu       0.00000000       0.00000000       0.00000000       0.00000000       0.00000000       0.41208372
Eu       0.00000000       0.00000000       4.51010101       0.00000000       0.00000000      -0.41208372
2
Properties=species:S:1:pos:R:3:forces:R:3 energy=-19.54818503914879 pbc="F F F"
Eu       0.00000000       0.00000000       0.00000000       0.00000000       0.00000000       0.41400421
Eu       0.00000000       0.00000000       4.56969697       0.00000000       0.00000000      -0.41400421
2
Properties=species:S:1:pos:R:3:forces:R:3 energy=-19.52352645833586 pbc="F F F"
Eu       0.00000000       0.00000000       0.00000000       0.00000000       0.00000000       0.41299129
Eu       0.00000000       0.00000000       4.62929293       0.00000000       0.00000000      -0.41299129
2
Properties=species:S:1:pos:R:3:forces:R:3 energy=-19.49902801352051 pbc="F F F"
Eu       0.00000000       0.00000000       0.00000000       0.00000000       0.00000000       0.40860647
Eu       0.00000000       0.00000000       4.68888889       0.00000000       0.00000000      -0.40860647
2
Properties=species:S:1:pos:R:3:forces:R:3 energy=-19.474892770648015 pbc="F F F"
Eu       0.00000000       0.00000000       0.00000000       0.00000000       0.00000000       0.40078920
Eu       0.00000000       0.00000000       4.74848485       0.00000000       0.00000000      -0.40078920
2
Properties=species:S:1:pos:R:3:forces:R:3 energy=-19.451312769724392 pbc="F F F"
Eu       0.00000000       0.00000000       0.00000000       0.00000000       0.00000000       0.39024249
Eu       0.00000000       0.00000000       4.80808081       0.00000000       0.00000000      -0.39024249
2
Properties=species:S:1:pos:R:3:forces:R:3 energy=-19.428400727732956 pbc="F F F"
Eu       0.00000000       0.00000000       0.00000000       0.00000000       0.00000000       0.37867028
Eu       0.00000000       0.00000000       4.86767677       0.00000000       0.00000000      -0.37867028
2
Properties=species:S:1:pos:R:3:forces:R:3 energy=-19.406144084869112 pbc="F F F"
Eu       0.00000000       0.00000000       0.00000000       0.00000000       0.00000000       0.36874604
Eu       0.00000000       0.00000000       4.92727273       0.00000000       0.00000000      -0.36874604
2
Properties=species:S:1:pos:R:3:forces:R:3 energy=-19.384353461777764 pbc="F F F"
Eu       0.00000000       0.00000000       0.00000000       0.00000000       0.00000000       0.36357808
Eu       0.00000000       0.00000000       4.98686869       0.00000000       0.00000000      -0.36357808
2
Properties=species:S:1:pos:R:3:forces:R:3 energy=-19.362664864677214 pbc="F F F"
Eu       0.00000000       0.00000000       0.00000000       0.00000000       0.00000000       0.36565220
Eu       0.00000000       0.00000000       5.04646465       0.00000000       0.00000000      -0.36565220
2
Properties=species:S:1:pos:R:3:forces:R:3 energy=-19.340619337835356 pbc="F F F"
Eu       0.00000000       0.00000000       0.00000000       0.00000000       0.00000000       0.37524590
Eu       0.00000000       0.00000000       5.10606061       0.00000000       0.00000000      -0.37524590
2
Properties=species:S:1:pos:R:3:forces:R:3 energy=-19.317859775274947 pbc="F F F"
Eu       0.00000000       0.00000000       0.00000000       0.00000000       0.00000000       0.38849166
Eu       0.00000000       0.00000000       5.16565657       0.00000000       0.00000000      -0.38849166
2
Properties=species:S:1:pos:R:3:forces:R:3 energy=-19.29442253603815 pbc="F F F"
Eu       0.00000000       0.00000000       0.00000000       0.00000000       0.00000000       0.39606979
Eu       0.00000000       0.00000000       5.22525253       0.00000000       0.00000000      -0.39606979
2
Properties=species:S:1:pos:R:3:forces:R:3 energy=-19.270998655914582 pbc="F F F"
Eu       0.00000000       0.00000000       0.00000000       0.00000000       0.00000000       0.38660073
Eu       0.00000000       0.00000000       5.28484848       0.00000000       0.00000000      -0.38660073
2
Properties=species:S:1:pos:R:3:forces:R:3 energy=-19.24867444169158 pbc="F F F"
Eu       0.00000000       0.00000000       0.00000000       0.00000000       0.00000000       0.36171436
Eu       0.00000000       0.00000000       5.34444444       0.00000000       0.00000000      -0.36171436
2
Properties=species:S:1:pos:R:3:forces:R:3 energy=-19.227582912314393 pbc="F F F"
Eu       0.00000000       0.00000000       0.00000000       0.00000000       0.00000000       0.35202801
Eu       0.00000000       0.00000000       5.40404040       0.00000000       0.00000000      -0.35202801
2
Properties=species:S:1:pos:R:3:forces:R:3 energy=-19.205900362442904 pbc="F F F"
Eu       0.00000000       0.00000000       0.00000000       0.00000000       0.00000000       0.38001031
Eu       0.00000000       0.00000000       5.46363636       0.00000000       0.00000000      -0.38001031
2
Properties=species:S:1:pos:R:3:forces:R:3 energy=-19.182459404736008 pbc="F F F"
Eu       0.00000000       0.00000000       0.00000000       0.00000000       0.00000000       0.40004116
Eu       0.00000000       0.00000000       5.52323232       0.00000000       0.00000000      -0.40004116
2
Properties=species:S:1:pos:R:3:forces:R:3 energy=-19.159258958289033 pbc="F F F"
Eu       0.00000000       0.00000000       0.00000000       0.00000000       0.00000000       0.37165767
Eu       0.00000000       0.00000000       5.58282828       0.00000000       0.00000000      -0.37165767
2
Properties=species:S:1:pos:R:3:forces:R:3 energy=-19.138294064143587 pbc="F F F"
Eu       0.00000000       0.00000000       0.00000000       0.00000000       0.00000000       0.33771157
Eu       0.00000000       0.00000000       5.64242424       0.00000000       0.00000000      -0.33771157
2
Properties=species:S:1:pos:R:3:forces:R:3 energy=-19.117624776398905 pbc="F F F"
Eu       0.00000000       0.00000000       0.00000000       0.00000000       0.00000000       0.36946034
Eu       0.00000000       0.00000000       5.70202020       0.00000000       0.00000000      -0.36946034
2
Properties=species:S:1:pos:R:3:forces:R:3 energy=-19.09331396506634 pbc="F F F"
Eu       0.00000000       0.00000000       0.00000000       0.00000000       0.00000000       0.44422600
Eu       0.00000000       0.00000000       5.76161616       0.00000000       0.00000000      -0.44422600
2
Properties=species:S:1:pos:R:3:forces:R:3 energy=-19.06658171109895 pbc="F F F"
Eu       0.00000000       0.00000000       0.00000000       0.00000000       0.00000000       0.42712647
Eu       0.00000000       0.00000000       5.82121212       0.00000000       0.00000000      -0.42712647
2
Properties=species:S:1:pos:R:3:forces:R:3 energy=-19.04525092459972 pbc="F F F"
Eu       0.00000000       0.00000000       0.00000000       0.00000000       0.00000000       0.27599314
Eu       0.00000000       0.00000000       5.88080808       0.00000000       0.00000000      -0.27599314
2
Properties=species:S:1:pos:R:3:forces:R:3 energy=-19.033966454696827 pbc="F F F"
Eu       0.00000000       0.00000000       0.00000000       0.00000000       0.00000000       0.10828057
Eu       0.00000000       0.00000000       5.94040404       0.00000000       0.00000000      -0.10828057
2
Properties=species:S:1:pos:R:3:forces:R:3 energy=-19.03027538673294 pbc="F F F"
Eu       0.00000000       0.00000000       0.00000000       0.00000000       0.00000000       0.03898740
Eu       0.00000000       0.00000000       6.00000000       0.00000000       0.00000000      -0.03898740
