2
Properties=species:S:1:pos:R:3:forces:R:3 energy=15142.628933660588 pbc="F F F"
Fe       0.00000000       0.00000000       0.00000000       0.00000000       0.00000000 -331602.00000000
Fe       0.00000000       0.00000000       0.10000000       0.00000000       0.00000000  331602.00000000
2
Properties=species:S:1:pos:R:3:forces:R:3 energy=5045.217800848089 pbc="F F F"
Fe       0.00000000       0.00000000       0.00000000       0.00000000       0.00000000  -78848.48437500
Fe       0.00000000       0.00000000       0.15959596       0.00000000       0.00000000   78848.48437500
2
Properties=species:S:1:pos:R:3:forces:R:3 energy=2249.5600860043382 pbc="F F F"
Fe       0.00000000       0.00000000       0.00000000       0.00000000       0.00000000  -26316.85937500
Fe       0.00000000       0.00000000       0.21919192       0.00000000       0.00000000   26316.85937500
2
Properties=species:S:1:pos:R:3:forces:R:3 energy=1228.6651885465687 pbc="F F F"
Fe       0.00000000       0.00000000       0.00000000       0.00000000       0.00000000  -10699.29199219
Fe       0.00000000       0.00000000       0.27878788       0.00000000       0.00000000   10699.29199219
2
Properties=species:S:1:pos:R:3:forces:R:3 energy=787.8392608121936 pbc="F F F"
Fe       0.00000000       0.00000000       0.00000000       0.00000000       0.00000000   -4960.41748047
Fe       0.00000000       0.00000000       0.33838384       0.00000000       0.00000000    4960.41748047
2
Properties=species:S:1:pos:R:3:forces:R:3 energy=573.5507476349355 pbc="F F F"
Fe       0.00000000       0.00000000       0.00000000       0.00000000       0.00000000   -2556.23974609
Fe       0.00000000       0.00000000       0.39797980       0.00000000       0.00000000    2556.23974609
2
Properties=species:S:1:pos:R:3:forces:R:3 energy=457.58144832486494 pbc="F F F"
Fe       0.00000000       0.00000000       0.00000000       0.00000000       0.00000000   -1477.12084961
Fe       0.00000000       0.00000000       0.45757576       0.00000000       0.00000000    1477.12084961
2
Properties=species:S:1:pos:R:3:forces:R:3 energy=385.22829892980934 pbc="F F F"
Fe       0.00000000       0.00000000       0.00000000       0.00000000       0.00000000   -1023.91735840
Fe       0.00000000       0.00000000       0.51717172       0.00000000       0.00000000    1023.91735840
2
Properties=species:S:1:pos:R:3:forces:R:3 energy=330.42062073883136 pbc="F F F"
Fe       0.00000000       0.00000000       0.00000000       0.00000000       0.00000000    -837.95147705
Fe       0.00000000       0.00000000       0.57676768       0.00000000       0.00000000     837.95147705
2
Properties=species:S:1:pos:R:3:forces:R:3 energy=283.30901800631335 pbc="F F F"
Fe       0.00000000       0.00000000       0.00000000       0.00000000       0.00000000    -756.31311035
Fe       0.00000000       0.00000000       0.63636364       0.00000000       0.00000000     756.31311035
2
Properties=species:S:1:pos:R:3:forces:R:3 energy=238.63079543242674 pbc="F F F"
Fe       0.00000000       0.00000000       0.00000000       0.00000000       0.00000000    -785.57403564
Fe       0.00000000       0.00000000       0.69595960       0.00000000       0.00000000     785.57403564
2
Properties=species:S:1:pos:R:3:forces:R:3 energy=190.71250637773713 pbc="F F F"
Fe       0.00000000       0.00000000       0.00000000       0.00000000       0.00000000    -798.32904053
Fe       0.00000000       0.00000000       0.75555556       0.00000000       0.00000000     798.32904053
2
Properties=species:S:1:pos:R:3:forces:R:3 energy=143.45975998894303 pbc="F F F"
Fe       0.00000000       0.00000000       0.00000000       0.00000000       0.00000000    -796.87084961
Fe       0.00000000       0.00000000       0.81515152       0.00000000       0.00000000     796.87084961
2
Properties=species:S:1:pos:R:3:forces:R:3 energy=97.83163221278575 pbc="F F F"
Fe       0.00000000       0.00000000       0.00000000       0.00000000       0.00000000    -697.64807129
Fe       0.00000000       0.00000000       0.87474747       0.00000000       0.00000000     697.64807129
2
Properties=species:S:1:pos:R:3:forces:R:3 energy=62.601991641734514 pbc="F F F"
Fe       0.00000000       0.00000000       0.00000000       0.00000000       0.00000000    -486.74163818
Fe       0.00000000       0.00000000       0.93434343       0.00000000       0.00000000     486.74163818
2
Properties=species:S:1:pos:R:3:forces:R:3 energy=38.91180663972493 pbc="F F F"
Fe       0.00000000       0.00000000       0.00000000       0.00000000       0.00000000    -313.40548706
Fe       0.00000000       0.00000000       0.99393939       0.00000000       0.00000000     313.40548706
2
Properties=species:S:1:pos:R:3:forces:R:3 energy=24.58741887696699 pbc="F F F"
Fe       0.00000000       0.00000000       0.00000000       0.00000000       0.00000000    -177.65304565
Fe       0.00000000       0.00000000       1.05353535       0.00000000       0.00000000     177.65304565
2
Properties=species:S:1:pos:R:3:forces:R:3 energy=16.203581208595224 pbc="F F F"
Fe       0.00000000       0.00000000       0.00000000       0.00000000       0.00000000    -115.47811890
Fe       0.00000000       0.00000000       1.11313131       0.00000000       0.00000000     115.47811890
2
Properties=species:S:1:pos:R:3:forces:R:3 energy=10.071920141795712 pbc="F F F"
Fe       0.00000000       0.00000000       0.00000000       0.00000000       0.00000000     -92.04313660
Fe       0.00000000       0.00000000       1.17272727       0.00000000       0.00000000      92.04313660
2
Properties=species:S:1:pos:R:3:forces:R:3 energy=5.209047325508686 pbc="F F F"
Fe       0.00000000       0.00000000       0.00000000       0.00000000       0.00000000     -71.10725403
Fe       0.00000000       0.00000000       1.23232323       0.00000000       0.00000000      71.10725403
2
Properties=species:S:1:pos:R:3:forces:R:3 energy=1.5680954746598752 pbc="F F F"
Fe       0.00000000       0.00000000       0.00000000       0.00000000       0.00000000     -51.63842773
Fe       0.00000000       0.00000000       1.29191919       0.00000000       0.00000000      51.63842773
2
Properties=species:S:1:pos:R:3:forces:R:3 energy=-1.0445159209827077 pbc="F F F"
Fe       0.00000000       0.00000000       0.00000000       0.00000000       0.00000000     -37.00749207
Fe       0.00000000       0.00000000       1.35151515       0.00000000       0.00000000      37.00749207
2
Properties=species:S:1:pos:R:3:forces:R:3 energy=-2.9504990123588373 pbc="F F F"
Fe       0.00000000       0.00000000       0.00000000       0.00000000       0.00000000     -27.70340157
Fe       0.00000000       0.00000000       1.41111111       0.00000000       0.00000000      27.70340157
2
Properties=species:S:1:pos:R:3:forces:R:3 energy=-4.412417588108143 pbc="F F F"
Fe       0.00000000       0.00000000       0.00000000       0.00000000       0.00000000     -21.74301720
Fe       0.00000000       0.00000000       1.47070707       0.00000000       0.00000000      21.74301720
2
Properties=species:S:1:pos:R:3:forces:R:3 energy=-5.576157217962148 pbc="F F F"
Fe       0.00000000       0.00000000       0.00000000       0.00000000       0.00000000     -17.53153992
Fe       0.00000000       0.00000000       1.53030303       0.00000000       0.00000000      17.53153992
2
Properties=species:S:1:pos:R:3:forces:R:3 energy=-6.522622497421712 pbc="F F F"
Fe       0.00000000       0.00000000       0.00000000       0.00000000       0.00000000     -14.35790539
Fe       0.00000000       0.00000000       1.58989899       0.00000000       0.00000000      14.35790539
2
Properties=species:S:1:pos:R:3:forces:R:3 energy=-7.297786158716673 pbc="F F F"
Fe       0.00000000       0.00000000       0.00000000       0.00000000       0.00000000     -11.71041965
Fe       0.00000000       0.00000000       1.64949495       0.00000000       0.00000000      11.71041965
2
Properties=species:S:1:pos:R:3:forces:R:3 energy=-7.922883715367781 pbc="F F F"
Fe       0.00000000       0.00000000       0.00000000       0.00000000       0.00000000      -9.29591942
Fe       0.00000000       0.00000000       1.70909091       0.00000000       0.00000000       9.29591942
2
Properties=species:S:1:pos:R:3:forces:R:3 energy=-8.408826516360763 pbc="F F F"
Fe       0.00000000       0.00000000       0.00000000       0.00000000       0.00000000      -7.03534412
Fe       0.00000000       0.00000000       1.76868687       0.00000000       0.00000000       7.03534412
2
Properties=species:S:1:pos:R:3:forces:R:3 energy=-8.763852835936358 pbc="F F F"
Fe       0.00000000       0.00000000       0.00000000       0.00000000       0.00000000      -4.89644432
Fe       0.00000000       0.00000000       1.82828283       0.00000000       0.00000000       4.89644432
2
Properties=species:S:1:pos:R:3:forces:R:3 energy=-8.994617470175548 pbc="F F F"
Fe       0.00000000       0.00000000       0.00000000       0.00000000       0.00000000      -2.87126684
Fe       0.00000000       0.00000000       1.88787879       0.00000000       0.00000000       2.87126684
2
Properties=species:S:1:pos:R:3:forces:R:3 energy=-9.110320482891083 pbc="F F F"
Fe       0.00000000       0.00000000       0.00000000       0.00000000       0.00000000      -1.06270409
Fe       0.00000000       0.00000000       1.94747475       0.00000000       0.00000000       1.06270409
2
Properties=species:S:1:pos:R:3:forces:R:3 energy=-9.129383229793403 pbc="F F F"
Fe       0.00000000       0.00000000       0.00000000       0.00000000       0.00000000       0.33995688
Fe       0.00000000       0.00000000       2.00707071       0.00000000       0.00000000      -0.33995688
2
Properties=species:S:1:pos:R:3:forces:R:3 energy=-9.080690229032399 pbc="F F F"
Fe       0.00000000       0.00000000       0.00000000       0.00000000       0.00000000       1.20067787
Fe       0.00000000       0.00000000       2.06666667       0.00000000       0.00000000      -1.20067787
2
Properties=species:S:1:pos:R:3:forces:R:3 energy=-8.996503072115313 pbc="F F F"
Fe       0.00000000       0.00000000       0.00000000       0.00000000       0.00000000       1.55188310
Fe       0.00000000       0.00000000       2.12626263       0.00000000       0.00000000      -1.55188310
2
Properties=species:S:1:pos:R:3:forces:R:3 energy=-8.902209475763211 pbc="F F F"
Fe       0.00000000       0.00000000       0.00000000       0.00000000       0.00000000       1.57685006
Fe       0.00000000       0.00000000       2.18585859       0.00000000       0.00000000      -1.57685006
2
Properties=species:S:1:pos:R:3:forces:R:3 energy=-8.810933153618452 pbc="F F F"
Fe       0.00000000       0.00000000       0.00000000       0.00000000       0.00000000       1.47876263
Fe       0.00000000       0.00000000       2.24545455       0.00000000       0.00000000      -1.47876263
2
Properties=species:S:1:pos:R:3:forces:R:3 energy=-8.72598289144323 pbc="F F F"
Fe       0.00000000       0.00000000       0.00000000       0.00000000       0.00000000       1.37611926
Fe       0.00000000       0.00000000       2.30505051       0.00000000       0.00000000      -1.37611926
2
Properties=species:S:1:pos:R:3:forces:R:3 energy=-8.646289259776951 pbc="F F F"
Fe       0.00000000       0.00000000       0.00000000       0.00000000       0.00000000       1.30368984
Fe       0.00000000       0.00000000       2.36464646       0.00000000       0.00000000      -1.30368984
2
Properties=species:S:1:pos:R:3:forces:R:3 energy=-8.570079278174447 pbc="F F F"
Fe       0.00000000       0.00000000       0.00000000       0.00000000       0.00000000       1.25672090
Fe       0.00000000       0.00000000       2.42424242       0.00000000       0.00000000      -1.25672090
2
Properties=species:S:1:pos:R:3:forces:R:3 energy=-8.496377998571976 pbc="F F F"
Fe       0.00000000       0.00000000       0.00000000       0.00000000       0.00000000       1.21589589
Fe       0.00000000       0.00000000       2.48383838       0.00000000       0.00000000      -1.21589589
2
Properties=species:S:1:pos:R:3:forces:R:3 energy=-8.425274498002224 pbc="F F F"
Fe       0.00000000       0.00000000       0.00000000       0.00000000       0.00000000       1.17093647
Fe       0.00000000       0.00000000       2.54343434       0.00000000       0.00000000      -1.17093647
2
Properties=species:S:1:pos:R:3:forces:R:3 energy=-8.356271961137645 pbc="F F F"
Fe       0.00000000       0.00000000       0.00000000       0.00000000       0.00000000       1.15237689
Fe       0.00000000       0.00000000       2.60303030       0.00000000       0.00000000      -1.15237689
2
Properties=species:S:1:pos:R:3:forces:R:3 energy=-8.287252528239735 pbc="F F F"
Fe       0.00000000       0.00000000       0.00000000       0.00000000       0.00000000       1.16436124
Fe       0.00000000       0.00000000       2.66262626       0.00000000       0.00000000      -1.16436124
2
Properties=species:S:1:pos:R:3:forces:R:3 energy=-8.217933857154739 pbc="F F F"
Fe       0.00000000       0.00000000       0.00000000       0.00000000       0.00000000       1.15678382
Fe       0.00000000       0.00000000       2.72222222       0.00000000       0.00000000      -1.15678382
2
Properties=species:S:1:pos:R:3:forces:R:3 energy=-8.149771765773059 pbc="F F F"
Fe       0.00000000       0.00000000       0.00000000       0.00000000       0.00000000       1.13004601
Fe       0.00000000       0.00000000       2.78181818       0.00000000       0.00000000      -1.13004601
2
Properties=species:S:1:pos:R:3:forces:R:3 energy=-8.08303570055444 pbc="F F F"
Fe       0.00000000       0.00000000       0.00000000       0.00000000       0.00000000       1.11296988
Fe       0.00000000       0.00000000       2.84141414       0.00000000       0.00000000      -1.11296988
2
Properties=species:S:1:pos:R:3:forces:R:3 energy=-8.016648750359856 pbc="F F F"
Fe       0.00000000       0.00000000       0.00000000       0.00000000       0.00000000       1.11871409
Fe       0.00000000       0.00000000       2.90101010       0.00000000       0.00000000      -1.11871409
2
Properties=species:S:1:pos:R:3:forces:R:3 energy=-7.949340108414674 pbc="F F F"
Fe       0.00000000       0.00000000       0.00000000       0.00000000       0.00000000       1.14196861
Fe       0.00000000       0.00000000       2.96060606       0.00000000       0.00000000      -1.14196861
2
Properties=species:S:1:pos:R:3:forces:R:3 energy=-7.880457180421875 pbc="F F F"
Fe       0.00000000       0.00000000       0.00000000       0.00000000       0.00000000       1.16921043
Fe       0.00000000       0.00000000       3.02020202       0.00000000       0.00000000      -1.16921043
2
Properties=species:S:1:pos:R:3:forces:R:3 energy=-7.81012537065233 pbc="F F F"
Fe       0.00000000       0.00000000       0.00000000       0.00000000       0.00000000       1.18943524
Fe       0.00000000       0.00000000       3.07979798       0.00000000       0.00000000      -1.18943524
2
Properties=species:S:1:pos:R:3:forces:R:3 energy=-7.738888562922495 pbc="F F F"
Fe       0.00000000       0.00000000       0.00000000       0.00000000       0.00000000       1.19974923
Fe       0.00000000       0.00000000       3.13939394       0.00000000       0.00000000      -1.19974923
2
Properties=species:S:1:pos:R:3:forces:R:3 energy=-7.667248011447976 pbc="F F F"
Fe       0.00000000       0.00000000       0.00000000       0.00000000       0.00000000       1.20390487
Fe       0.00000000       0.00000000       3.19898990       0.00000000       0.00000000      -1.20390487
2
Properties=species:S:1:pos:R:3:forces:R:3 energy=-7.595409754550327 pbc="F F F"
Fe       0.00000000       0.00000000       0.00000000       0.00000000       0.00000000       1.20708013
Fe       0.00000000       0.00000000       3.25858586       0.00000000       0.00000000      -1.20708013
2
Properties=species:S:1:pos:R:3:forces:R:3 energy=-7.523341597369521 pbc="F F F"
Fe       0.00000000       0.00000000       0.00000000       0.00000000       0.00000000       1.21175539
Fe       0.00000000       0.00000000       3.31818182       0.00000000       0.00000000      -1.21175539
2
Properties=species:S:1:pos:R:3:forces:R:3 energy=-7.4509704764341 pbc="F F F"
Fe       0.00000000       0.00000000       0.00000000       0.00000000       0.00000000       1.21675920
Fe       0.00000000       0.00000000       3.37777778       0.00000000       0.00000000      -1.21675920
2
Properties=species:S:1:pos:R:3:forces:R:3 energy=-7.378379513784754 pbc="F F F"
Fe       0.00000000       0.00000000       0.00000000       0.00000000       0.00000000       1.21840477
Fe       0.00000000       0.00000000       3.43737374       0.00000000       0.00000000      -1.21840477
2
Properties=species:S:1:pos:R:3:forces:R:3 energy=-7.305903975284717 pbc="F F F"
Fe       0.00000000       0.00000000       0.00000000       0.00000000       0.00000000       1.21210313
Fe       0.00000000       0.00000000       3.49696970       0.00000000       0.00000000      -1.21210313
2
Properties=species:S:1:pos:R:3:forces:R:3 energy=-7.234149059314442 pbc="F F F"
Fe       0.00000000       0.00000000       0.00000000       0.00000000       0.00000000       1.19358492
Fe       0.00000000       0.00000000       3.55656566       0.00000000       0.00000000      -1.19358492
2
Properties=species:S:1:pos:R:3:forces:R:3 energy=-7.1639460784381965 pbc="F F F"
Fe       0.00000000       0.00000000       0.00000000       0.00000000       0.00000000       1.15964568
Fe       0.00000000       0.00000000       3.61616162       0.00000000       0.00000000      -1.15964568
2
Properties=species:S:1:pos:R:3:forces:R:3 energy=-7.09627146677926 pbc="F F F"
Fe       0.00000000       0.00000000       0.00000000       0.00000000       0.00000000       1.10855162
Fe       0.00000000       0.00000000       3.67575758       0.00000000       0.00000000      -1.10855162
2
Properties=species:S:1:pos:R:3:forces:R:3 energy=-7.032158647509028 pbc="F F F"
Fe       0.00000000       0.00000000       0.00000000       0.00000000       0.00000000       1.04024661
Fe       0.00000000       0.00000000       3.73535354       0.00000000       0.00000000      -1.04024661
2
Properties=species:S:1:pos:R:3:forces:R:3 energy=-6.9725926771776265 pbc="F F F"
Fe       0.00000000       0.00000000       0.00000000       0.00000000       0.00000000       0.95636868
Fe       0.00000000       0.00000000       3.79494949       0.00000000       0.00000000      -0.95636868
2
Properties=species:S:1:pos:R:3:forces:R:3 energy=-6.918414922631787 pbc="F F F"
Fe       0.00000000       0.00000000       0.00000000       0.00000000       0.00000000       0.86005181
Fe       0.00000000       0.00000000       3.85454545       0.00000000       0.00000000      -0.86005181
2
Properties=species:S:1:pos:R:3:forces:R:3 energy=-6.870245368236273 pbc="F F F"
Fe       0.00000000       0.00000000       0.00000000       0.00000000       0.00000000       0.75552356
Fe       0.00000000       0.00000000       3.91414141       0.00000000       0.00000000      -0.75552356
2
Properties=species:S:1:pos:R:3:forces:R:3 energy=-6.828430596274132 pbc="F F F"
Fe       0.00000000       0.00000000       0.00000000       0.00000000       0.00000000       0.64756036
Fe       0.00000000       0.00000000       3.97373737       0.00000000       0.00000000      -0.64756036
2
Properties=species:S:1:pos:R:3:forces:R:3 energy=-6.793033735352504 pbc="F F F"
Fe       0.00000000       0.00000000       0.00000000       0.00000000       0.00000000       0.54093611
Fe       0.00000000       0.00000000       4.03333333       0.00000000       0.00000000      -0.54093611
2
Properties=species:S:1:pos:R:3:forces:R:3 energy=-6.76384395913192 pbc="F F F"
Fe       0.00000000       0.00000000       0.00000000       0.00000000       0.00000000       0.43990037
Fe       0.00000000       0.00000000       4.09292929       0.00000000       0.00000000      -0.43990037
2
Properties=species:S:1:pos:R:3:forces:R:3 energy=-6.7404216971573145 pbc="F F F"
Fe       0.00000000       0.00000000       0.00000000       0.00000000       0.00000000       0.34787032
Fe       0.00000000       0.00000000       4.15252525       0.00000000       0.00000000      -0.34787032
2
Properties=species:S:1:pos:R:3:forces:R:3 energy=-6.722152842238593 pbc="F F F"
Fe       0.00000000       0.00000000       0.00000000       0.00000000       0.00000000       0.26729110
Fe       0.00000000       0.00000000       4.21212121       0.00000000       0.00000000      -0.26729110
2
Properties=species:S:1:pos:R:3:forces:R:3 energy=-6.708304470706057 pbc="F F F"
Fe       0.00000000       0.00000000       0.00000000       0.00000000       0.00000000       0.19968344
Fe       0.00000000       0.00000000       4.27171717       0.00000000       0.00000000      -0.19968344
2
Properties=species:S:1:pos:R:3:forces:R:3 energy=-6.698079494949913 pbc="F F F"
Fe       0.00000000       0.00000000       0.00000000       0.00000000       0.00000000       0.14577506
Fe       0.00000000       0.00000000       4.33131313       0.00000000       0.00000000      -0.14577506
2
Properties=species:S:1:pos:R:3:forces:R:3 energy=-6.690656578357385 pbc="F F F"
Fe       0.00000000       0.00000000       0.00000000       0.00000000       0.00000000       0.10558477
Fe       0.00000000       0.00000000       4.39090909       0.00000000       0.00000000      -0.10558477
2
Properties=species:S:1:pos:R:3:forces:R:3 energy=-6.685234367126833 pbc="F F F"
Fe       0.00000000       0.00000000       0.00000000       0.00000000       0.00000000       0.07845109
Fe       0.00000000       0.00000000       4.45050505       0.00000000       0.00000000      -0.07845109
2
Properties=species:S:1:pos:R:3:forces:R:3 energy=-6.681073280875276 pbc="F F F"
Fe       0.00000000       0.00000000       0.00000000       0.00000000       0.00000000       0.06300165
Fe       0.00000000       0.00000000       4.51010101       0.00000000       0.00000000      -0.06300165
2
Properties=species:S:1:pos:R:3:forces:R:3 energy=-6.677533946378881 pbc="F F F"
Fe       0.00000000       0.00000000       0.00000000       0.00000000       0.00000000       0.05716071
Fe       0.00000000       0.00000000       4.56969697       0.00000000       0.00000000      -0.05716071
2
Properties=species:S:1:pos:R:3:forces:R:3 energy=-6.674121098269735 pbc="F F F"
Fe       0.00000000       0.00000000       0.00000000       0.00000000       0.00000000       0.05828246
Fe       0.00000000       0.00000000       4.62929293       0.00000000       0.00000000      -0.05828246
2
Properties=species:S:1:pos:R:3:forces:R:3 energy=-6.670508159156167 pbc="F F F"
Fe       0.00000000       0.00000000       0.00000000       0.00000000       0.00000000       0.06340008
Fe       0.00000000       0.00000000       4.68888889       0.00000000       0.00000000      -0.06340008
2
Properties=species:S:1:pos:R:3:forces:R:3 energy=-6.666543921678611 pbc="F F F"
Fe       0.00000000       0.00000000       0.00000000       0.00000000       0.00000000       0.06957898
Fe       0.00000000       0.00000000       4.74848485       0.00000000       0.00000000      -0.06957898
2
Properties=species:S:1:pos:R:3:forces:R:3 energy=-6.6622447480526725 pbc="F F F"
Fe       0.00000000       0.00000000       0.00000000       0.00000000       0.00000000       0.07427944
Fe       0.00000000       0.00000000       4.80808081       0.00000000       0.00000000      -0.07427944
2
Properties=species:S:1:pos:R:3:forces:R:3 energy=-6.657756597326694 pbc="F F F"
Fe       0.00000000       0.00000000       0.00000000       0.00000000       0.00000000       0.07566310
Fe       0.00000000       0.00000000       4.86767677       0.00000000       0.00000000      -0.07566310
2
Properties=species:S:1:pos:R:3:forces:R:3 energy=-6.653311468473607 pbc="F F F"
Fe       0.00000000       0.00000000       0.00000000       0.00000000       0.00000000       0.07278000
Fe       0.00000000       0.00000000       4.92727273       0.00000000       0.00000000      -0.07278000
2
Properties=species:S:1:pos:R:3:forces:R:3 energy=-6.649166914931749 pbc="F F F"
Fe       0.00000000       0.00000000       0.00000000       0.00000000       0.00000000       0.06565699
Fe       0.00000000       0.00000000       4.98686869       0.00000000       0.00000000      -0.06565699
2
Properties=species:S:1:pos:R:3:forces:R:3 energy=-6.645551262184646 pbc="F F F"
Fe       0.00000000       0.00000000       0.00000000       0.00000000       0.00000000       0.05528563
Fe       0.00000000       0.00000000       5.04646465       0.00000000       0.00000000      -0.05528563
2
Properties=species:S:1:pos:R:3:forces:R:3 energy=-6.642605406701222 pbc="F F F"
Fe       0.00000000       0.00000000       0.00000000       0.00000000       0.00000000       0.04354110
Fe       0.00000000       0.00000000       5.10606061       0.00000000       0.00000000      -0.04354110
2
Properties=species:S:1:pos:R:3:forces:R:3 energy=-6.640338126291463 pbc="F F F"
Fe       0.00000000       0.00000000       0.00000000       0.00000000       0.00000000       0.03295521
Fe       0.00000000       0.00000000       5.16565657       0.00000000       0.00000000      -0.03295521
2
Properties=species:S:1:pos:R:3:forces:R:3 energy=-6.6386017709148115 pbc="F F F"
Fe       0.00000000       0.00000000       0.00000000       0.00000000       0.00000000       0.02611561
Fe       0.00000000       0.00000000       5.22525253       0.00000000       0.00000000      -0.02611561
2
Properties=species:S:1:pos:R:3:forces:R:3 energy=-6.6371223525223755 pbc="F F F"
Fe       0.00000000       0.00000000       0.00000000       0.00000000       0.00000000       0.02436825
Fe       0.00000000       0.00000000       5.28484848       0.00000000       0.00000000      -0.02436825
2
Properties=species:S:1:pos:R:3:forces:R:3 energy=-6.635627445121283 pbc="F F F"
Fe       0.00000000       0.00000000       0.00000000       0.00000000       0.00000000       0.02599133
Fe       0.00000000       0.00000000       5.34444444       0.00000000       0.00000000      -0.02599133
2
Properties=species:S:1:pos:R:3:forces:R:3 energy=-6.63406125100432 pbc="F F F"
Fe       0.00000000       0.00000000       0.00000000       0.00000000       0.00000000       0.02579058
Fe       0.00000000       0.00000000       5.40404040       0.00000000       0.00000000      -0.02579058
2
Properties=species:S:1:pos:R:3:forces:R:3 energy=-6.632653349247995 pbc="F F F"
Fe       0.00000000       0.00000000       0.00000000       0.00000000       0.00000000       0.02100967
Fe       0.00000000       0.00000000       5.46363636       0.00000000       0.00000000      -0.02100967
2
Properties=species:S:1:pos:R:3:forces:R:3 energy=-6.6315086410990665 pbc="F F F"
Fe       0.00000000       0.00000000       0.00000000       0.00000000       0.00000000       0.01848991
Fe       0.00000000       0.00000000       5.52323232       0.00000000       0.00000000      -0.01848991
2
Properties=species:S:1:pos:R:3:forces:R:3 energy=-6.630336115954674 pbc="F F F"
Fe       0.00000000       0.00000000       0.00000000       0.00000000       0.00000000       0.02128444
Fe       0.00000000       0.00000000       5.58282828       0.00000000       0.00000000      -0.02128444
2
Properties=species:S:1:pos:R:3:forces:R:3 energy=-6.628983849190602 pbc="F F F"
Fe       0.00000000       0.00000000       0.00000000       0.00000000       0.00000000       0.02369828
Fe       0.00000000       0.00000000       5.64242424       0.00000000       0.00000000      -0.02369828
2
Properties=species:S:1:pos:R:3:forces:R:3 energy=-6.627546382388717 pbc="F F F"
Fe       0.00000000       0.00000000       0.00000000       0.00000000       0.00000000       0.02458421
Fe       0.00000000       0.00000000       5.70202020       0.00000000       0.00000000      -0.02458421
2
Properties=species:S:1:pos:R:3:forces:R:3 energy=-6.625986595430287 pbc="F F F"
Fe       0.00000000       0.00000000       0.00000000       0.00000000       0.00000000       0.02870561
Fe       0.00000000       0.00000000       5.76161616       0.00000000       0.00000000      -0.02870561
2
Properties=species:S:1:pos:R:3:forces:R:3 energy=-6.624083747876807 pbc="F F F"
Fe       0.00000000       0.00000000       0.00000000       0.00000000       0.00000000       0.03423876
Fe       0.00000000       0.00000000       5.82121212       0.00000000       0.00000000      -0.03423876
2
Properties=species:S:1:pos:R:3:forces:R:3 energy=-6.6221516487912755 pbc="F F F"
Fe       0.00000000       0.00000000       0.00000000       0.00000000       0.00000000       0.02843434
Fe       0.00000000       0.00000000       5.88080808       0.00000000       0.00000000      -0.02843434
2
Properties=species:S:1:pos:R:3:forces:R:3 energy=-6.620848390000553 pbc="F F F"
Fe       0.00000000       0.00000000       0.00000000       0.00000000       0.00000000       0.01502362
Fe       0.00000000       0.00000000       5.94040404       0.00000000       0.00000000      -0.01502362
2
Properties=species:S:1:pos:R:3:forces:R:3 energy=-6.620212692252732 pbc="F F F"
Fe       0.00000000       0.00000000       0.00000000       0.00000000       0.00000000       0.00836448
Fe       0.00000000       0.00000000       6.00000000       0.00000000       0.00000000      -0.00836448
