2
Properties=species:S:1:pos:R:3:forces:R:3 energy=71.6531795309318 pbc="F F F"
H        0.00000000       0.00000000       0.00000000       0.00000000       0.00000000    -933.96270752
H        0.00000000       0.00000000       0.10000000       0.00000000       0.00000000     933.96270752
2
Properties=species:S:1:pos:R:3:forces:R:3 energy=32.37279928190835 pbc="F F F"
H        0.00000000       0.00000000       0.00000000       0.00000000       0.00000000    -361.91604614
H        0.00000000       0.00000000       0.15959596       0.00000000       0.00000000     361.91604614
2
Properties=species:S:1:pos:R:3:forces:R:3 energy=18.325146083864155 pbc="F F F"
H        0.00000000       0.00000000       0.00000000       0.00000000       0.00000000    -205.23042297
H        0.00000000       0.00000000       0.21919192       0.00000000       0.00000000     205.23042297
2
Properties=species:S:1:pos:R:3:forces:R:3 energy=9.223403340210309 pbc="F F F"
H        0.00000000       0.00000000       0.00000000       0.00000000       0.00000000     -70.24935913
H        0.00000000       0.00000000       0.27878788       0.00000000       0.00000000      70.24935913
2
Properties=species:S:1:pos:R:3:forces:R:3 energy=3.5883520919304224 pbc="F F F"
H        0.00000000       0.00000000       0.00000000       0.00000000       0.00000000    -106.94763184
H        0.00000000       0.00000000       0.33838384       0.00000000       0.00000000     106.94763184
2
Properties=species:S:1:pos:R:3:forces:R:3 energy=-0.9423650375955634 pbc="F F F"
H        0.00000000       0.00000000       0.00000000       0.00000000       0.00000000     -53.27376556
H        0.00000000       0.00000000       0.39797980       0.00000000       0.00000000      53.27376556
2
Properties=species:S:1:pos:R:3:forces:R:3 energy=-3.5092242726004343 pbc="F F F"
H        0.00000000       0.00000000       0.00000000       0.00000000       0.00000000     -33.44764709
H        0.00000000       0.00000000       0.45757576       0.00000000       0.00000000      33.44764709
2
Properties=species:S:1:pos:R:3:forces:R:3 energy=-5.0677514943133986 pbc="F F F"
H        0.00000000       0.00000000       0.00000000       0.00000000       0.00000000     -19.99905777
H        0.00000000       0.00000000       0.51717172       0.00000000       0.00000000      19.99905777
2
Properties=species:S:1:pos:R:3:forces:R:3 energy=-5.986287801898847 pbc="F F F"
H        0.00000000       0.00000000       0.00000000       0.00000000       0.00000000     -11.39518452
H        0.00000000       0.00000000       0.57676768       0.00000000       0.00000000      11.39518452
2
Properties=species:S:1:pos:R:3:forces:R:3 energy=-6.486685402079604 pbc="F F F"
H        0.00000000       0.00000000       0.00000000       0.00000000       0.00000000      -5.87611103
H        0.00000000       0.00000000       0.63636364       0.00000000       0.00000000       5.87611103
2
Properties=species:S:1:pos:R:3:forces:R:3 energy=-6.720094553671797 pbc="F F F"
H        0.00000000       0.00000000       0.00000000       0.00000000       0.00000000      -2.19553661
H        0.00000000       0.00000000       0.69595960       0.00000000       0.00000000       2.19553661
2
Properties=species:S:1:pos:R:3:forces:R:3 energy=-6.774284331980848 pbc="F F F"
H        0.00000000       0.00000000       0.00000000       0.00000000       0.00000000       0.20134264
H        0.00000000       0.00000000       0.75555556       0.00000000       0.00000000      -0.20134264
2
Properties=species:S:1:pos:R:3:forces:R:3 energy=-6.711966287497163 pbc="F F F"
H        0.00000000       0.00000000       0.00000000       0.00000000       0.00000000       1.78986573
H        0.00000000       0.00000000       0.81515152       0.00000000       0.00000000      -1.78986573
2
Properties=species:S:1:pos:R:3:forces:R:3 energy=-6.570141992919852 pbc="F F F"
H        0.00000000       0.00000000       0.00000000       0.00000000       0.00000000       2.91586018
H        0.00000000       0.00000000       0.87474747       0.00000000       0.00000000      -2.91586018
2
Properties=species:S:1:pos:R:3:forces:R:3 energy=-6.370093134117902 pbc="F F F"
H        0.00000000       0.00000000       0.00000000       0.00000000       0.00000000       3.74321151
H        0.00000000       0.00000000       0.93434343       0.00000000       0.00000000      -3.74321151
2
Properties=species:S:1:pos:R:3:forces:R:3 energy=-6.130769658773082 pbc="F F F"
H        0.00000000       0.00000000       0.00000000       0.00000000       0.00000000       4.23531580
H        0.00000000       0.00000000       0.99393939       0.00000000       0.00000000      -4.23531580
2
Properties=species:S:1:pos:R:3:forces:R:3 energy=-5.870158383023992 pbc="F F F"
H        0.00000000       0.00000000       0.00000000       0.00000000       0.00000000       4.48424244
H        0.00000000       0.00000000       1.05353535       0.00000000       0.00000000      -4.48424244
2
Properties=species:S:1:pos:R:3:forces:R:3 energy=-5.597910340719966 pbc="F F F"
H        0.00000000       0.00000000       0.00000000       0.00000000       0.00000000       4.64796305
H        0.00000000       0.00000000       1.11313131       0.00000000       0.00000000      -4.64796305
2
Properties=species:S:1:pos:R:3:forces:R:3 energy=-5.3161244525592455 pbc="F F F"
H        0.00000000       0.00000000       0.00000000       0.00000000       0.00000000       4.81163597
H        0.00000000       0.00000000       1.17272727       0.00000000       0.00000000      -4.81163597
2
Properties=species:S:1:pos:R:3:forces:R:3 energy=-5.023901790041248 pbc="F F F"
H        0.00000000       0.00000000       0.00000000       0.00000000       0.00000000       4.99897289
H        0.00000000       0.00000000       1.23232323       0.00000000       0.00000000      -4.99897289
2
Properties=species:S:1:pos:R:3:forces:R:3 energy=-4.720234553668876 pbc="F F F"
H        0.00000000       0.00000000       0.00000000       0.00000000       0.00000000       5.18594170
H        0.00000000       0.00000000       1.29191919       0.00000000       0.00000000      -5.18594170
2
Properties=species:S:1:pos:R:3:forces:R:3 energy=-4.407586922802395 pbc="F F F"
H        0.00000000       0.00000000       0.00000000       0.00000000       0.00000000       5.28165340
H        0.00000000       0.00000000       1.35151515       0.00000000       0.00000000      -5.28165340
2
Properties=species:S:1:pos:R:3:forces:R:3 energy=-4.0945585668110525 pbc="F F F"
H        0.00000000       0.00000000       0.00000000       0.00000000       0.00000000       5.18602800
H        0.00000000       0.00000000       1.41111111       0.00000000       0.00000000      -5.18602800
2
Properties=species:S:1:pos:R:3:forces:R:3 energy=-3.793911560940686 pbc="F F F"
H        0.00000000       0.00000000       0.00000000       0.00000000       0.00000000       4.86901474
H        0.00000000       0.00000000       1.47070707       0.00000000       0.00000000      -4.86901474
2
Properties=species:S:1:pos:R:3:forces:R:3 energy=-3.5176724777715225 pbc="F F F"
H        0.00000000       0.00000000       0.00000000       0.00000000       0.00000000       4.37913465
H        0.00000000       0.00000000       1.53030303       0.00000000       0.00000000      -4.37913465
2
Properties=species:S:1:pos:R:3:forces:R:3 energy=-3.2737354986935583 pbc="F F F"
H        0.00000000       0.00000000       0.00000000       0.00000000       0.00000000       3.79908776
H        0.00000000       0.00000000       1.58989899       0.00000000       0.00000000      -3.79908776
2
Properties=species:S:1:pos:R:3:forces:R:3 energy=-3.065134314056272 pbc="F F F"
H        0.00000000       0.00000000       0.00000000       0.00000000       0.00000000       3.20401740
H        0.00000000       0.00000000       1.64949495       0.00000000       0.00000000      -3.20401740
2
Properties=species:S:1:pos:R:3:forces:R:3 energy=-2.891126003727553 pbc="F F F"
H        0.00000000       0.00000000       0.00000000       0.00000000       0.00000000       2.64411736
H        0.00000000       0.00000000       1.70909091       0.00000000       0.00000000      -2.64411736
2
Properties=species:S:1:pos:R:3:forces:R:3 energy=-2.748750533811559 pbc="F F F"
H        0.00000000       0.00000000       0.00000000       0.00000000       0.00000000       2.14529848
H        0.00000000       0.00000000       1.76868687       0.00000000       0.00000000      -2.14529848
2
Properties=species:S:1:pos:R:3:forces:R:3 energy=-2.634032165687811 pbc="F F F"
H        0.00000000       0.00000000       0.00000000       0.00000000       0.00000000       1.71626782
H        0.00000000       0.00000000       1.82828283       0.00000000       0.00000000      -1.71626782
2
Properties=species:S:1:pos:R:3:forces:R:3 energy=-2.5428196513994767 pbc="F F F"
H        0.00000000       0.00000000       0.00000000       0.00000000       0.00000000       1.35581529
H        0.00000000       0.00000000       1.88787879       0.00000000       0.00000000      -1.35581529
2
Properties=species:S:1:pos:R:3:forces:R:3 energy=-2.471187747963603 pbc="F F F"
H        0.00000000       0.00000000       0.00000000       0.00000000       0.00000000       1.05787075
H        0.00000000       0.00000000       1.94747475       0.00000000       0.00000000      -1.05787075
2
Properties=species:S:1:pos:R:3:forces:R:3 energy=-2.415642736166188 pbc="F F F"
H        0.00000000       0.00000000       0.00000000       0.00000000       0.00000000       0.81459171
H        0.00000000       0.00000000       2.00707071       0.00000000       0.00000000      -0.81459171
2
Properties=species:S:1:pos:R:3:forces:R:3 energy=-2.373169401297576 pbc="F F F"
H        0.00000000       0.00000000       0.00000000       0.00000000       0.00000000       0.61794043
H        0.00000000       0.00000000       2.06666667       0.00000000       0.00000000      -0.61794043
2
Properties=species:S:1:pos:R:3:forces:R:3 energy=-2.341212712935731 pbc="F F F"
H        0.00000000       0.00000000       0.00000000       0.00000000       0.00000000       0.46044794
H        0.00000000       0.00000000       2.12626263       0.00000000       0.00000000      -0.46044794
2
Properties=species:S:1:pos:R:3:forces:R:3 energy=-2.317640404316698 pbc="F F F"
H        0.00000000       0.00000000       0.00000000       0.00000000       0.00000000       0.33548608
H        0.00000000       0.00000000       2.18585859       0.00000000       0.00000000      -0.33548608
2
Properties=species:S:1:pos:R:3:forces:R:3 energy=-2.300692208580161 pbc="F F F"
H        0.00000000       0.00000000       0.00000000       0.00000000       0.00000000       0.23735163
H        0.00000000       0.00000000       2.24545455       0.00000000       0.00000000      -0.23735163
2
Properties=species:S:1:pos:R:3:forces:R:3 energy=-2.288916000604114 pbc="F F F"
H        0.00000000       0.00000000       0.00000000       0.00000000       0.00000000       0.16118251
H        0.00000000       0.00000000       2.30505051       0.00000000       0.00000000      -0.16118251
2
Properties=species:S:1:pos:R:3:forces:R:3 energy=-2.2811258503820913 pbc="F F F"
H        0.00000000       0.00000000       0.00000000       0.00000000       0.00000000       0.10289910
H        0.00000000       0.00000000       2.36464646       0.00000000       0.00000000      -0.10289910
2
Properties=species:S:1:pos:R:3:forces:R:3 energy=-2.276362488304636 pbc="F F F"
H        0.00000000       0.00000000       0.00000000       0.00000000       0.00000000       0.05912684
H        0.00000000       0.00000000       2.42424242       0.00000000       0.00000000      -0.05912684
2
Properties=species:S:1:pos:R:3:forces:R:3 energy=-2.273846342638886 pbc="F F F"
H        0.00000000       0.00000000       0.00000000       0.00000000       0.00000000       0.02707944
H        0.00000000       0.00000000       2.48383838       0.00000000       0.00000000      -0.02707944
2
Properties=species:S:1:pos:R:3:forces:R:3 energy=-2.2729475364054905 pbc="F F F"
H        0.00000000       0.00000000       0.00000000       0.00000000       0.00000000       0.00448720
H        0.00000000       0.00000000       2.54343434       0.00000000       0.00000000      -0.00448720
2
Properties=species:S:1:pos:R:3:forces:R:3 energy=-2.2731603738188064 pbc="F F F"
H        0.00000000       0.00000000       0.00000000       0.00000000       0.00000000      -0.01048942
H        0.00000000       0.00000000       2.60303030       0.00000000       0.00000000       0.01048942
2
Properties=species:S:1:pos:R:3:forces:R:3 energy=-2.2740764342294795 pbc="F F F"
H        0.00000000       0.00000000       0.00000000       0.00000000       0.00000000      -0.01934678
H        0.00000000       0.00000000       2.66262626       0.00000000       0.00000000       0.01934678
2
Properties=species:S:1:pos:R:3:forces:R:3 energy=-2.275369744635095 pbc="F F F"
H        0.00000000       0.00000000       0.00000000       0.00000000       0.00000000      -0.02332142
H        0.00000000       0.00000000       2.72222222       0.00000000       0.00000000       0.02332142
2
Properties=species:S:1:pos:R:3:forces:R:3 energy=-2.2767803581005777 pbc="F F F"
H        0.00000000       0.00000000       0.00000000       0.00000000       0.00000000      -0.02346486
H        0.00000000       0.00000000       2.78181818       0.00000000       0.00000000       0.02346486
2
Properties=species:S:1:pos:R:3:forces:R:3 energy=-2.2781085691478036 pbc="F F F"
H        0.00000000       0.00000000       0.00000000       0.00000000       0.00000000      -0.02070552
H        0.00000000       0.00000000       2.84141414       0.00000000       0.00000000       0.02070552
2
Properties=species:S:1:pos:R:3:forces:R:3 energy=-2.2792072661460927 pbc="F F F"
H        0.00000000       0.00000000       0.00000000       0.00000000       0.00000000      -0.01589257
H        0.00000000       0.00000000       2.90101010       0.00000000       0.00000000       0.01589257
2
Properties=species:S:1:pos:R:3:forces:R:3 energy=-2.2799775756293856 pbc="F F F"
H        0.00000000       0.00000000       0.00000000       0.00000000       0.00000000      -0.00981047
H        0.00000000       0.00000000       2.96060606       0.00000000       0.00000000       0.00981047
2
Properties=species:S:1:pos:R:3:forces:R:3 energy=-2.2803657321664392 pbc="F F F"
H        0.00000000       0.00000000       0.00000000       0.00000000       0.00000000      -0.00316813
H        0.00000000       0.00000000       3.02020202       0.00000000       0.00000000       0.00316813
2
Properties=species:S:1:pos:R:3:forces:R:3 energy=-2.28035632997869 pbc="F F F"
H        0.00000000       0.00000000       0.00000000       0.00000000       0.00000000       0.00343127
H        0.00000000       0.00000000       3.07979798       0.00000000       0.00000000      -0.00343127
2
Properties=species:S:1:pos:R:3:forces:R:3 energy=-2.279966796349348 pbc="F F F"
H        0.00000000       0.00000000       0.00000000       0.00000000       0.00000000       0.00952332
H        0.00000000       0.00000000       3.13939394       0.00000000       0.00000000      -0.00952332
2
Properties=species:S:1:pos:R:3:forces:R:3 energy=-2.279237335673454 pbc="F F F"
H        0.00000000       0.00000000       0.00000000       0.00000000       0.00000000       0.01480691
H        0.00000000       0.00000000       3.19898990       0.00000000       0.00000000      -0.01480691
2
Properties=species:S:1:pos:R:3:forces:R:3 energy=-2.278220866380334 pbc="F F F"
H        0.00000000       0.00000000       0.00000000       0.00000000       0.00000000       0.01913846
H        0.00000000       0.00000000       3.25858586       0.00000000       0.00000000      -0.01913846
2
Properties=species:S:1:pos:R:3:forces:R:3 energy=-2.2769753895591793 pbc="F F F"
H        0.00000000       0.00000000       0.00000000       0.00000000       0.00000000       0.02250100
H        0.00000000       0.00000000       3.31818182       0.00000000       0.00000000      -0.02250100
2
Properties=species:S:1:pos:R:3:forces:R:3 energy=-2.2755570399742124 pbc="F F F"
H        0.00000000       0.00000000       0.00000000       0.00000000       0.00000000       0.02495125
H        0.00000000       0.00000000       3.37777778       0.00000000       0.00000000      -0.02495125
2
Properties=species:S:1:pos:R:3:forces:R:3 energy=-2.2740179535627263 pbc="F F F"
H        0.00000000       0.00000000       0.00000000       0.00000000       0.00000000       0.02656785
H        0.00000000       0.00000000       3.43737374       0.00000000       0.00000000      -0.02656785
2
Properties=species:S:1:pos:R:3:forces:R:3 energy=-2.272405786440161 pbc="F F F"
H        0.00000000       0.00000000       0.00000000       0.00000000       0.00000000       0.02741827
H        0.00000000       0.00000000       3.49696970       0.00000000       0.00000000      -0.02741827
2
Properties=species:S:1:pos:R:3:forces:R:3 energy=-2.270763976087405 pbc="F F F"
H        0.00000000       0.00000000       0.00000000       0.00000000       0.00000000       0.02755609
H        0.00000000       0.00000000       3.55656566       0.00000000       0.00000000      -0.02755609
2
Properties=species:S:1:pos:R:3:forces:R:3 energy=-2.2691341401877643 pbc="F F F"
H        0.00000000       0.00000000       0.00000000       0.00000000       0.00000000       0.02704358
H        0.00000000       0.00000000       3.61616162       0.00000000       0.00000000      -0.02704358
2
Properties=species:S:1:pos:R:3:forces:R:3 energy=-2.2675515633050223 pbc="F F F"
H        0.00000000       0.00000000       0.00000000       0.00000000       0.00000000       0.02599391
H        0.00000000       0.00000000       3.67575758       0.00000000       0.00000000      -0.02599391
2
Properties=species:S:1:pos:R:3:forces:R:3 energy=-2.266042602294502 pbc="F F F"
H        0.00000000       0.00000000       0.00000000       0.00000000       0.00000000       0.02460286
H        0.00000000       0.00000000       3.73535354       0.00000000       0.00000000      -0.02460286
2
Properties=species:S:1:pos:R:3:forces:R:3 energy=-2.264620176049952 pbc="F F F"
H        0.00000000       0.00000000       0.00000000       0.00000000       0.00000000       0.02315686
H        0.00000000       0.00000000       3.79494949       0.00000000       0.00000000      -0.02315686
2
Properties=species:S:1:pos:R:3:forces:R:3 energy=-2.2632766318541155 pbc="F F F"
H        0.00000000       0.00000000       0.00000000       0.00000000       0.00000000       0.02201046
H        0.00000000       0.00000000       3.85454545       0.00000000       0.00000000      -0.02201046
2
Properties=species:S:1:pos:R:3:forces:R:3 energy=-2.261983763395717 pbc="F F F"
H        0.00000000       0.00000000       0.00000000       0.00000000       0.00000000       0.02151150
H        0.00000000       0.00000000       3.91414141       0.00000000       0.00000000      -0.02151150
2
Properties=species:S:1:pos:R:3:forces:R:3 energy=-2.2606947331652516 pbc="F F F"
H        0.00000000       0.00000000       0.00000000       0.00000000       0.00000000       0.02190480
H        0.00000000       0.00000000       3.97373737       0.00000000       0.00000000      -0.02190480
2
Properties=species:S:1:pos:R:3:forces:R:3 energy=-2.259354577820624 pbc="F F F"
H        0.00000000       0.00000000       0.00000000       0.00000000       0.00000000       0.02321503
H        0.00000000       0.00000000       4.03333333       0.00000000       0.00000000      -0.02321503
2
Properties=species:S:1:pos:R:3:forces:R:3 energy=-2.2579147599370146 pbc="F F F"
H        0.00000000       0.00000000       0.00000000       0.00000000       0.00000000       0.02517020
H        0.00000000       0.00000000       4.09292929       0.00000000       0.00000000      -0.02517020
2
Properties=species:S:1:pos:R:3:forces:R:3 energy=-2.2563524901082137 pbc="F F F"
H        0.00000000       0.00000000       0.00000000       0.00000000       0.00000000       0.02721448
H        0.00000000       0.00000000       4.15252525       0.00000000       0.00000000      -0.02721448
2
Properties=species:S:1:pos:R:3:forces:R:3 energy=-2.2546836078855366 pbc="F F F"
H        0.00000000       0.00000000       0.00000000       0.00000000       0.00000000       0.02863079
H        0.00000000       0.00000000       4.21212121       0.00000000       0.00000000      -0.02863079
2
Properties=species:S:1:pos:R:3:forces:R:3 energy=-2.252965923300726 pbc="F F F"
H        0.00000000       0.00000000       0.00000000       0.00000000       0.00000000       0.02875020
H        0.00000000       0.00000000       4.27171717       0.00000000       0.00000000      -0.02875020
2
Properties=species:S:1:pos:R:3:forces:R:3 energy=-2.251290639835765 pbc="F F F"
H        0.00000000       0.00000000       0.00000000       0.00000000       0.00000000       0.02717503
H        0.00000000       0.00000000       4.33131313       0.00000000       0.00000000      -0.02717503
2
Properties=species:S:1:pos:R:3:forces:R:3 energy=-2.24976018203949 pbc="F F F"
H        0.00000000       0.00000000       0.00000000       0.00000000       0.00000000       0.02394037
H        0.00000000       0.00000000       4.39090909       0.00000000       0.00000000      -0.02394037
2
Properties=species:S:1:pos:R:3:forces:R:3 energy=-2.2484603035731676 pbc="F F F"
H        0.00000000       0.00000000       0.00000000       0.00000000       0.00000000       0.01954681
H        0.00000000       0.00000000       4.45050505       0.00000000       0.00000000      -0.01954681
2
Properties=species:S:1:pos:R:3:forces:R:3 energy=-2.2474367222392373 pbc="F F F"
H        0.00000000       0.00000000       0.00000000       0.00000000       0.00000000       0.01483613
H        0.00000000       0.00000000       4.51010101       0.00000000       0.00000000      -0.01483613
2
Properties=species:S:1:pos:R:3:forces:R:3 energy=-2.246680099066361 pbc="F F F"
H        0.00000000       0.00000000       0.00000000       0.00000000       0.00000000       0.01072269
H        0.00000000       0.00000000       4.56969697       0.00000000       0.00000000      -0.01072269
2
Properties=species:S:1:pos:R:3:forces:R:3 energy=-2.2461327163560068 pbc="F F F"
H        0.00000000       0.00000000       0.00000000       0.00000000       0.00000000       0.00788657
H        0.00000000       0.00000000       4.62929293       0.00000000       0.00000000      -0.00788657
2
Properties=species:S:1:pos:R:3:forces:R:3 energy=-2.2457101711002956 pbc="F F F"
H        0.00000000       0.00000000       0.00000000       0.00000000       0.00000000       0.00653246
H        0.00000000       0.00000000       4.68888889       0.00000000       0.00000000      -0.00653246
2
Properties=species:S:1:pos:R:3:forces:R:3 energy=-2.2453307015561723 pbc="F F F"
H        0.00000000       0.00000000       0.00000000       0.00000000       0.00000000       0.00635247
H        0.00000000       0.00000000       4.74848485       0.00000000       0.00000000      -0.00635247
2
Properties=species:S:1:pos:R:3:forces:R:3 energy=-2.2449426019666916 pbc="F F F"
H        0.00000000       0.00000000       0.00000000       0.00000000       0.00000000       0.00669078
H        0.00000000       0.00000000       4.80808081       0.00000000       0.00000000      -0.00669078
2
Properties=species:S:1:pos:R:3:forces:R:3 energy=-2.244536622801994 pbc="F F F"
H        0.00000000       0.00000000       0.00000000       0.00000000       0.00000000       0.00686290
H        0.00000000       0.00000000       4.86767677       0.00000000       0.00000000      -0.00686290
2
Properties=species:S:1:pos:R:3:forces:R:3 energy=-2.244136430873067 pbc="F F F"
H        0.00000000       0.00000000       0.00000000       0.00000000       0.00000000       0.00647040
H        0.00000000       0.00000000       4.92727273       0.00000000       0.00000000      -0.00647040
2
Properties=species:S:1:pos:R:3:forces:R:3 energy=-2.243775482110858 pbc="F F F"
H        0.00000000       0.00000000       0.00000000       0.00000000       0.00000000       0.00558685
H        0.00000000       0.00000000       4.98686869       0.00000000       0.00000000      -0.00558685
2
Properties=species:S:1:pos:R:3:forces:R:3 energy=-2.243470318314186 pbc="F F F"
H        0.00000000       0.00000000       0.00000000       0.00000000       0.00000000       0.00471089
H        0.00000000       0.00000000       5.04646465       0.00000000       0.00000000      -0.00471089
2
Properties=species:S:1:pos:R:3:forces:R:3 energy=-2.24320053793496 pbc="F F F"
H        0.00000000       0.00000000       0.00000000       0.00000000       0.00000000       0.00450700
H        0.00000000       0.00000000       5.10606061       0.00000000       0.00000000      -0.00450700
2
Properties=species:S:1:pos:R:3:forces:R:3 energy=-2.242910226936138 pbc="F F F"
H        0.00000000       0.00000000       0.00000000       0.00000000       0.00000000       0.00544275
H        0.00000000       0.00000000       5.16565657       0.00000000       0.00000000      -0.00544275
2
Properties=species:S:1:pos:R:3:forces:R:3 energy=-2.242530130185166 pbc="F F F"
H        0.00000000       0.00000000       0.00000000       0.00000000       0.00000000       0.00744293
H        0.00000000       0.00000000       5.22525253       0.00000000       0.00000000      -0.00744293
2
Properties=species:S:1:pos:R:3:forces:R:3 energy=-2.24201627410061 pbc="F F F"
H        0.00000000       0.00000000       0.00000000       0.00000000       0.00000000       0.00976179
H        0.00000000       0.00000000       5.28484848       0.00000000       0.00000000      -0.00976179
2
Properties=species:S:1:pos:R:3:forces:R:3 energy=-2.241385252626611 pbc="F F F"
H        0.00000000       0.00000000       0.00000000       0.00000000       0.00000000       0.01114901
H        0.00000000       0.00000000       5.34444444       0.00000000       0.00000000      -0.01114901
2
Properties=species:S:1:pos:R:3:forces:R:3 energy=-2.240729007860738 pbc="F F F"
H        0.00000000       0.00000000       0.00000000       0.00000000       0.00000000       0.01048974
H        0.00000000       0.00000000       5.40404040       0.00000000       0.00000000      -0.01048974
2
Properties=species:S:1:pos:R:3:forces:R:3 energy=-2.240170245321847 pbc="F F F"
H        0.00000000       0.00000000       0.00000000       0.00000000       0.00000000       0.00815079
H        0.00000000       0.00000000       5.46363636       0.00000000       0.00000000      -0.00815079
2
Properties=species:S:1:pos:R:3:forces:R:3 energy=-2.239732256750055 pbc="F F F"
H        0.00000000       0.00000000       0.00000000       0.00000000       0.00000000       0.00712801
H        0.00000000       0.00000000       5.52323232       0.00000000       0.00000000      -0.00712801
2
Properties=species:S:1:pos:R:3:forces:R:3 energy=-2.239224717174247 pbc="F F F"
H        0.00000000       0.00000000       0.00000000       0.00000000       0.00000000       0.01072781
H        0.00000000       0.00000000       5.58282828       0.00000000       0.00000000      -0.01072781
2
Properties=species:S:1:pos:R:3:forces:R:3 energy=-2.2383969869942506 pbc="F F F"
H        0.00000000       0.00000000       0.00000000       0.00000000       0.00000000       0.01700044
H        0.00000000       0.00000000       5.64242424       0.00000000       0.00000000      -0.01700044
2
Properties=species:S:1:pos:R:3:forces:R:3 energy=-2.237266414636491 pbc="F F F"
H        0.00000000       0.00000000       0.00000000       0.00000000       0.00000000       0.01997425
H        0.00000000       0.00000000       5.70202020       0.00000000       0.00000000      -0.01997425
2
Properties=species:S:1:pos:R:3:forces:R:3 energy=-2.2361343096459705 pbc="F F F"
H        0.00000000       0.00000000       0.00000000       0.00000000       0.00000000       0.01722733
H        0.00000000       0.00000000       5.76161616       0.00000000       0.00000000      -0.01722733
2
Properties=species:S:1:pos:R:3:forces:R:3 energy=-2.23527862074183 pbc="F F F"
H        0.00000000       0.00000000       0.00000000       0.00000000       0.00000000       0.01122723
H        0.00000000       0.00000000       5.82121212       0.00000000       0.00000000      -0.01122723
2
Properties=species:S:1:pos:R:3:forces:R:3 energy=-2.234792526340302 pbc="F F F"
H        0.00000000       0.00000000       0.00000000       0.00000000       0.00000000       0.00537850
H        0.00000000       0.00000000       5.88080808       0.00000000       0.00000000      -0.00537850
2
Properties=species:S:1:pos:R:3:forces:R:3 energy=-2.234597546908347 pbc="F F F"
H        0.00000000       0.00000000       0.00000000       0.00000000       0.00000000       0.00148068
H        0.00000000       0.00000000       5.94040404       0.00000000       0.00000000      -0.00148068
2
Properties=species:S:1:pos:R:3:forces:R:3 energy=-2.234564423177073 pbc="F F F"
H        0.00000000       0.00000000       0.00000000       0.00000000       0.00000000       0.00010019
H        0.00000000       0.00000000       6.00000000       0.00000000       0.00000000      -0.00010019
