2
Properties=species:S:1:pos:R:3:forces:R:3 energy=88298.63107671993 pbc="F F F"
Hg       0.00000000       0.00000000       0.00000000       0.00000000       0.00000000 -2233149.50000000
Hg       0.00000000       0.00000000       0.10000000       0.00000000       0.00000000 2233149.50000000
2
Properties=species:S:1:pos:R:3:forces:R:3 energy=24464.83029546993 pbc="F F F"
Hg       0.00000000       0.00000000       0.00000000       0.00000000       0.00000000 -454718.75000000
Hg       0.00000000       0.00000000       0.15959596       0.00000000       0.00000000  454718.75000000
2
Properties=species:S:1:pos:R:3:forces:R:3 energy=9103.187717344927 pbc="F F F"
Hg       0.00000000       0.00000000       0.00000000       0.00000000       0.00000000 -135213.09375000
Hg       0.00000000       0.00000000       0.21919192       0.00000000       0.00000000  135213.09375000
2
Properties=species:S:1:pos:R:3:forces:R:3 energy=4096.599338438677 pbc="F F F"
Hg       0.00000000       0.00000000       0.00000000       0.00000000       0.00000000  -49150.02343750
Hg       0.00000000       0.00000000       0.27878788       0.00000000       0.00000000   49150.02343750
2
Properties=species:S:1:pos:R:3:forces:R:3 energy=2174.565158751177 pbc="F F F"
Hg       0.00000000       0.00000000       0.00000000       0.00000000       0.00000000  -20125.73046875
Hg       0.00000000       0.00000000       0.33838384       0.00000000       0.00000000   20125.73046875
2
Properties=species:S:1:pos:R:3:forces:R:3 energy=1357.5210913747 pbc="F F F"
Hg       0.00000000       0.00000000       0.00000000       0.00000000       0.00000000   -8950.93359375
Hg       0.00000000       0.00000000       0.39797980       0.00000000       0.00000000    8950.93359375
2
Properties=species:S:1:pos:R:3:forces:R:3 energy=983.0688208795588 pbc="F F F"
Hg       0.00000000       0.00000000       0.00000000       0.00000000       0.00000000   -4257.20751953
Hg       0.00000000       0.00000000       0.45757576       0.00000000       0.00000000    4257.20751953
2
Properties=species:S:1:pos:R:3:forces:R:3 energy=799.991489355597 pbc="F F F"
Hg       0.00000000       0.00000000       0.00000000       0.00000000       0.00000000   -2155.54223633
Hg       0.00000000       0.00000000       0.51717172       0.00000000       0.00000000    2155.54223633
2
Properties=species:S:1:pos:R:3:forces:R:3 energy=704.505710585017 pbc="F F F"
Hg       0.00000000       0.00000000       0.00000000       0.00000000       0.00000000   -1169.04895020
Hg       0.00000000       0.00000000       0.57676768       0.00000000       0.00000000    1169.04895020
2
Properties=species:S:1:pos:R:3:forces:R:3 energy=650.7135353554047 pbc="F F F"
Hg       0.00000000       0.00000000       0.00000000       0.00000000       0.00000000    -693.00299072
Hg       0.00000000       0.00000000       0.63636364       0.00000000       0.00000000     693.00299072
2
Properties=species:S:1:pos:R:3:forces:R:3 energy=617.071384574701 pbc="F F F"
Hg       0.00000000       0.00000000       0.00000000       0.00000000       0.00000000    -465.22137451
Hg       0.00000000       0.00000000       0.69595960       0.00000000       0.00000000     465.22137451
2
Properties=species:S:1:pos:R:3:forces:R:3 energy=592.3137553322252 pbc="F F F"
Hg       0.00000000       0.00000000       0.00000000       0.00000000       0.00000000    -390.75579834
Hg       0.00000000       0.00000000       0.75555556       0.00000000       0.00000000     390.75579834
2
Properties=species:S:1:pos:R:3:forces:R:3 energy=566.3067365205075 pbc="F F F"
Hg       0.00000000       0.00000000       0.00000000       0.00000000       0.00000000    -528.47735596
Hg       0.00000000       0.00000000       0.81515152       0.00000000       0.00000000     528.47735596
2
Properties=species:S:1:pos:R:3:forces:R:3 energy=530.10928812266 pbc="F F F"
Hg       0.00000000       0.00000000       0.00000000       0.00000000       0.00000000    -681.30108643
Hg       0.00000000       0.00000000       0.87474747       0.00000000       0.00000000     681.30108643
2
Properties=species:S:1:pos:R:3:forces:R:3 energy=485.7894338551696 pbc="F F F"
Hg       0.00000000       0.00000000       0.00000000       0.00000000       0.00000000    -804.04577637
Hg       0.00000000       0.00000000       0.93434343       0.00000000       0.00000000     804.04577637
2
Properties=species:S:1:pos:R:3:forces:R:3 energy=434.32959563738564 pbc="F F F"
Hg       0.00000000       0.00000000       0.00000000       0.00000000       0.00000000    -922.94085693
Hg       0.00000000       0.00000000       0.99393939       0.00000000       0.00000000     922.94085693
2
Properties=species:S:1:pos:R:3:forces:R:3 energy=375.9244146364424 pbc="F F F"
Hg       0.00000000       0.00000000       0.00000000       0.00000000       0.00000000   -1031.93090820
Hg       0.00000000       0.00000000       1.05353535       0.00000000       0.00000000    1031.93090820
2
Properties=species:S:1:pos:R:3:forces:R:3 energy=312.82990287858695 pbc="F F F"
Hg       0.00000000       0.00000000       0.00000000       0.00000000       0.00000000   -1066.74707031
Hg       0.00000000       0.00000000       1.11313131       0.00000000       0.00000000    1066.74707031
2
Properties=species:S:1:pos:R:3:forces:R:3 energy=250.70403467984323 pbc="F F F"
Hg       0.00000000       0.00000000       0.00000000       0.00000000       0.00000000   -1009.27838135
Hg       0.00000000       0.00000000       1.17272727       0.00000000       0.00000000    1009.27838135
2
Properties=species:S:1:pos:R:3:forces:R:3 energy=193.41102217454656 pbc="F F F"
Hg       0.00000000       0.00000000       0.00000000       0.00000000       0.00000000    -903.16479492
Hg       0.00000000       0.00000000       1.23232323       0.00000000       0.00000000     903.16479492
2
Properties=species:S:1:pos:R:3:forces:R:3 energy=144.2722308236804 pbc="F F F"
Hg       0.00000000       0.00000000       0.00000000       0.00000000       0.00000000    -739.19854736
Hg       0.00000000       0.00000000       1.29191919       0.00000000       0.00000000     739.19854736
2
Properties=species:S:1:pos:R:3:forces:R:3 energy=105.53026023809448 pbc="F F F"
Hg       0.00000000       0.00000000       0.00000000       0.00000000       0.00000000    -562.83898926
Hg       0.00000000       0.00000000       1.35151515       0.00000000       0.00000000     562.83898926
2
Properties=species:S:1:pos:R:3:forces:R:3 energy=76.70850992603945 pbc="F F F"
Hg       0.00000000       0.00000000       0.00000000       0.00000000       0.00000000    -409.89468384
Hg       0.00000000       0.00000000       1.41111111       0.00000000       0.00000000     409.89468384
2
Properties=species:S:1:pos:R:3:forces:R:3 energy=55.92505257151114 pbc="F F F"
Hg       0.00000000       0.00000000       0.00000000       0.00000000       0.00000000    -294.06378174
Hg       0.00000000       0.00000000       1.47070707       0.00000000       0.00000000     294.06378174
2
Properties=species:S:1:pos:R:3:forces:R:3 energy=40.988245600180576 pbc="F F F"
Hg       0.00000000       0.00000000       0.00000000       0.00000000       0.00000000    -211.56114197
Hg       0.00000000       0.00000000       1.53030303       0.00000000       0.00000000     211.56114197
2
Properties=species:S:1:pos:R:3:forces:R:3 energy=30.302733262085606 pbc="F F F"
Hg       0.00000000       0.00000000       0.00000000       0.00000000       0.00000000    -150.02868652
Hg       0.00000000       0.00000000       1.58989899       0.00000000       0.00000000     150.02868652
2
Properties=species:S:1:pos:R:3:forces:R:3 energy=22.74929317282861 pbc="F F F"
Hg       0.00000000       0.00000000       0.00000000       0.00000000       0.00000000    -106.33794403
Hg       0.00000000       0.00000000       1.64949495       0.00000000       0.00000000     106.33794403
2
Properties=species:S:1:pos:R:3:forces:R:3 energy=17.344773237490685 pbc="F F F"
Hg       0.00000000       0.00000000       0.00000000       0.00000000       0.00000000     -76.78531647
Hg       0.00000000       0.00000000       1.70909091       0.00000000       0.00000000      76.78531647
2
Properties=species:S:1:pos:R:3:forces:R:3 energy=13.443560131015314 pbc="F F F"
Hg       0.00000000       0.00000000       0.00000000       0.00000000       0.00000000     -55.17537689
Hg       0.00000000       0.00000000       1.76868687       0.00000000       0.00000000      55.17537689
2
Properties=species:S:1:pos:R:3:forces:R:3 energy=10.64975729657749 pbc="F F F"
Hg       0.00000000       0.00000000       0.00000000       0.00000000       0.00000000     -39.56120300
Hg       0.00000000       0.00000000       1.82828283       0.00000000       0.00000000      39.56120300
2
Properties=species:S:1:pos:R:3:forces:R:3 energy=8.619287094700537 pbc="F F F"
Hg       0.00000000       0.00000000       0.00000000       0.00000000       0.00000000     -29.38388634
Hg       0.00000000       0.00000000       1.88787879       0.00000000       0.00000000      29.38388634
2
Properties=species:S:1:pos:R:3:forces:R:3 energy=7.068936849306166 pbc="F F F"
Hg       0.00000000       0.00000000       0.00000000       0.00000000       0.00000000     -23.15589333
Hg       0.00000000       0.00000000       1.94747475       0.00000000       0.00000000      23.15589333
2
Properties=species:S:1:pos:R:3:forces:R:3 energy=5.813994180435616 pbc="F F F"
Hg       0.00000000       0.00000000       0.00000000       0.00000000       0.00000000     -19.22665787
Hg       0.00000000       0.00000000       2.00707071       0.00000000       0.00000000      19.22665787
2
Properties=species:S:1:pos:R:3:forces:R:3 energy=4.755454378955521 pbc="F F F"
Hg       0.00000000       0.00000000       0.00000000       0.00000000       0.00000000     -16.41370583
Hg       0.00000000       0.00000000       2.06666667       0.00000000       0.00000000      16.41370583
2
Properties=species:S:1:pos:R:3:forces:R:3 energy=3.848956868893691 pbc="F F F"
Hg       0.00000000       0.00000000       0.00000000       0.00000000       0.00000000     -14.04948711
Hg       0.00000000       0.00000000       2.12626263       0.00000000       0.00000000      14.04948711
2
Properties=species:S:1:pos:R:3:forces:R:3 energy=3.0777017408354115 pbc="F F F"
Hg       0.00000000       0.00000000       0.00000000       0.00000000       0.00000000     -11.85235310
Hg       0.00000000       0.00000000       2.18585859       0.00000000       0.00000000      11.85235310
2
Properties=species:S:1:pos:R:3:forces:R:3 energy=2.433931037118484 pbc="F F F"
Hg       0.00000000       0.00000000       0.00000000       0.00000000       0.00000000      -9.77497768
Hg       0.00000000       0.00000000       2.24545455       0.00000000       0.00000000       9.77497768
2
Properties=species:S:1:pos:R:3:forces:R:3 energy=1.9091597941408123 pbc="F F F"
Hg       0.00000000       0.00000000       0.00000000       0.00000000       0.00000000      -7.87090397
Hg       0.00000000       0.00000000       2.30505051       0.00000000       0.00000000       7.87090397
2
Properties=species:S:1:pos:R:3:forces:R:3 energy=1.491023999857039 pbc="F F F"
Hg       0.00000000       0.00000000       0.00000000       0.00000000       0.00000000      -6.20542955
Hg       0.00000000       0.00000000       2.36464646       0.00000000       0.00000000       6.20542955
2
Properties=species:S:1:pos:R:3:forces:R:3 energy=1.1640229520381833 pbc="F F F"
Hg       0.00000000       0.00000000       0.00000000       0.00000000       0.00000000      -4.81556702
Hg       0.00000000       0.00000000       2.42424242       0.00000000       0.00000000       4.81556702
2
Properties=species:S:1:pos:R:3:forces:R:3 energy=0.9115188129540183 pbc="F F F"
Hg       0.00000000       0.00000000       0.00000000       0.00000000       0.00000000      -3.70314670
Hg       0.00000000       0.00000000       2.48383838       0.00000000       0.00000000       3.70314670
2
Properties=species:S:1:pos:R:3:forces:R:3 energy=0.7176148979456449 pbc="F F F"
Hg       0.00000000       0.00000000       0.00000000       0.00000000       0.00000000      -2.84315944
Hg       0.00000000       0.00000000       2.54343434       0.00000000       0.00000000       2.84315944
2
Properties=species:S:1:pos:R:3:forces:R:3 energy=0.5684004484035055 pbc="F F F"
Hg       0.00000000       0.00000000       0.00000000       0.00000000       0.00000000      -2.19624639
Hg       0.00000000       0.00000000       2.60303030       0.00000000       0.00000000       2.19624639
2
Properties=species:S:1:pos:R:3:forces:R:3 energy=0.4524709396304683 pbc="F F F"
Hg       0.00000000       0.00000000       0.00000000       0.00000000       0.00000000      -1.71895528
Hg       0.00000000       0.00000000       2.66262626       0.00000000       0.00000000       1.71895528
2
Properties=species:S:1:pos:R:3:forces:R:3 energy=0.3609714653075652 pbc="F F F"
Hg       0.00000000       0.00000000       0.00000000       0.00000000       0.00000000      -1.36988497
Hg       0.00000000       0.00000000       2.72222222       0.00000000       0.00000000       1.36988497
2
Properties=species:S:1:pos:R:3:forces:R:3 energy=0.2873746421639516 pbc="F F F"
Hg       0.00000000       0.00000000       0.00000000       0.00000000       0.00000000      -1.11254990
Hg       0.00000000       0.00000000       2.78181818       0.00000000       0.00000000       1.11254990
2
Properties=species:S:1:pos:R:3:forces:R:3 energy=0.22714399778925892 pbc="F F F"
Hg       0.00000000       0.00000000       0.00000000       0.00000000       0.00000000      -0.91693211
Hg       0.00000000       0.00000000       2.84141414       0.00000000       0.00000000       0.91693211
2
Properties=species:S:1:pos:R:3:forces:R:3 energy=0.17730580409994903 pbc="F F F"
Hg       0.00000000       0.00000000       0.00000000       0.00000000       0.00000000      -0.76075983
Hg       0.00000000       0.00000000       2.90101010       0.00000000       0.00000000       0.76075983
2
Properties=species:S:1:pos:R:3:forces:R:3 energy=0.13596672166865884 pbc="F F F"
Hg       0.00000000       0.00000000       0.00000000       0.00000000       0.00000000      -0.63003445
Hg       0.00000000       0.00000000       2.96060606       0.00000000       0.00000000       0.63003445
2
Properties=species:S:1:pos:R:3:forces:R:3 energy=0.1018439847566922 pbc="F F F"
Hg       0.00000000       0.00000000       0.00000000       0.00000000       0.00000000      -0.51790130
Hg       0.00000000       0.00000000       3.02020202       0.00000000       0.00000000       0.51790130
2
Properties=species:S:1:pos:R:3:forces:R:3 energy=0.07391332036487816 pbc="F F F"
Hg       0.00000000       0.00000000       0.00000000       0.00000000       0.00000000      -0.42211854
Hg       0.00000000       0.00000000       3.07979798       0.00000000       0.00000000       0.42211854
2
Properties=species:S:1:pos:R:3:forces:R:3 energy=0.0512125888858733 pbc="F F F"
Hg       0.00000000       0.00000000       0.00000000       0.00000000       0.00000000      -0.34239295
Hg       0.00000000       0.00000000       3.13939394       0.00000000       0.00000000       0.34239295
2
Properties=species:S:1:pos:R:3:forces:R:3 energy=0.03278427884346375 pbc="F F F"
Hg       0.00000000       0.00000000       0.00000000       0.00000000       0.00000000      -0.27867639
Hg       0.00000000       0.00000000       3.19898990       0.00000000       0.00000000       0.27867639
2
Properties=species:S:1:pos:R:3:forces:R:3 energy=0.01769634179507809 pbc="F F F"
Hg       0.00000000       0.00000000       0.00000000       0.00000000       0.00000000      -0.23000126
Hg       0.00000000       0.00000000       3.25858586       0.00000000       0.00000000       0.23000126
2
Properties=species:S:1:pos:R:3:forces:R:3 energy=0.005123077882534965 pbc="F F F"
Hg       0.00000000       0.00000000       0.00000000       0.00000000       0.00000000      -0.19369645
Hg       0.00000000       0.00000000       3.31818182       0.00000000       0.00000000       0.19369645
2
Properties=species:S:1:pos:R:3:forces:R:3 energy=-0.005558746656204587 pbc="F F F"
Hg       0.00000000       0.00000000       0.00000000       0.00000000       0.00000000      -0.16588134
Hg       0.00000000       0.00000000       3.37777778       0.00000000       0.00000000       0.16588134
2
Properties=species:S:1:pos:R:3:forces:R:3 energy=-0.014744647812498034 pbc="F F F"
Hg       0.00000000       0.00000000       0.00000000       0.00000000       0.00000000      -0.14296129
Hg       0.00000000       0.00000000       3.43737374       0.00000000       0.00000000       0.14296129
2
Properties=species:S:1:pos:R:3:forces:R:3 energy=-0.022650241038600034 pbc="F F F"
Hg       0.00000000       0.00000000       0.00000000       0.00000000       0.00000000      -0.12267228
Hg       0.00000000       0.00000000       3.49696970       0.00000000       0.00000000       0.12267228
2
Properties=species:S:1:pos:R:3:forces:R:3 energy=-0.02940036157632535 pbc="F F F"
Hg       0.00000000       0.00000000       0.00000000       0.00000000       0.00000000      -0.10412085
Hg       0.00000000       0.00000000       3.55656566       0.00000000       0.00000000       0.10412085
2
Properties=species:S:1:pos:R:3:forces:R:3 energy=-0.03509408155476269 pbc="F F F"
Hg       0.00000000       0.00000000       0.00000000       0.00000000       0.00000000      -0.08724938
Hg       0.00000000       0.00000000       3.61616162       0.00000000       0.00000000       0.08724938
2
Properties=species:S:1:pos:R:3:forces:R:3 energy=-0.039837150302299014 pbc="F F F"
Hg       0.00000000       0.00000000       0.00000000       0.00000000       0.00000000      -0.07226006
Hg       0.00000000       0.00000000       3.67575758       0.00000000       0.00000000       0.07226006
2
Properties=species:S:1:pos:R:3:forces:R:3 energy=-0.04374679885730709 pbc="F F F"
Hg       0.00000000       0.00000000       0.00000000       0.00000000       0.00000000      -0.05926828
Hg       0.00000000       0.00000000       3.73535354       0.00000000       0.00000000       0.05926828
2
Properties=species:S:1:pos:R:3:forces:R:3 energy=-0.04693939685767488 pbc="F F F"
Hg       0.00000000       0.00000000       0.00000000       0.00000000       0.00000000      -0.04818650
Hg       0.00000000       0.00000000       3.79494949       0.00000000       0.00000000       0.04818650
2
Properties=species:S:1:pos:R:3:forces:R:3 energy=-0.049522701229167576 pbc="F F F"
Hg       0.00000000       0.00000000       0.00000000       0.00000000       0.00000000      -0.03874735
Hg       0.00000000       0.00000000       3.85454545       0.00000000       0.00000000       0.03874735
2
Properties=species:S:1:pos:R:3:forces:R:3 energy=-0.05158269273493314 pbc="F F F"
Hg       0.00000000       0.00000000       0.00000000       0.00000000       0.00000000      -0.03056468
Hg       0.00000000       0.00000000       3.91414141       0.00000000       0.00000000       0.03056468
2
Properties=species:S:1:pos:R:3:forces:R:3 energy=-0.05318169563522409 pbc="F F F"
Hg       0.00000000       0.00000000       0.00000000       0.00000000       0.00000000      -0.02319018
Hg       0.00000000       0.00000000       3.97373737       0.00000000       0.00000000       0.02319018
2
Properties=species:S:1:pos:R:3:forces:R:3 energy=-0.05435410924579734 pbc="F F F"
Hg       0.00000000       0.00000000       0.00000000       0.00000000       0.00000000      -0.01617484
Hg       0.00000000       0.00000000       4.03333333       0.00000000       0.00000000       0.01617484
2
Properties=species:S:1:pos:R:3:forces:R:3 energy=-0.05510919744589289 pbc="F F F"
Hg       0.00000000       0.00000000       0.00000000       0.00000000       0.00000000      -0.00913458
Hg       0.00000000       0.00000000       4.09292929       0.00000000       0.00000000       0.00913458
2
Properties=species:S:1:pos:R:3:forces:R:3 energy=-0.05543727187265857 pbc="F F F"
Hg       0.00000000       0.00000000       0.00000000       0.00000000       0.00000000      -0.00182446
Hg       0.00000000       0.00000000       4.15252525       0.00000000       0.00000000       0.00182446
2
Properties=species:S:1:pos:R:3:forces:R:3 energy=-0.055320161862787764 pbc="F F F"
Hg       0.00000000       0.00000000       0.00000000       0.00000000       0.00000000       0.00580084
Hg       0.00000000       0.00000000       4.21212121       0.00000000       0.00000000      -0.00580084
2
Properties=species:S:1:pos:R:3:forces:R:3 energy=-0.05474305299159087 pbc="F F F"
Hg       0.00000000       0.00000000       0.00000000       0.00000000       0.00000000       0.01356632
Hg       0.00000000       0.00000000       4.27171717       0.00000000       0.00000000      -0.01356632
2
Properties=species:S:1:pos:R:3:forces:R:3 energy=-0.05370761385456277 pbc="F F F"
Hg       0.00000000       0.00000000       0.00000000       0.00000000       0.00000000       0.02110191
Hg       0.00000000       0.00000000       4.33131313       0.00000000       0.00000000      -0.02110191
2
Properties=species:S:1:pos:R:3:forces:R:3 energy=-0.05224214188225683 pbc="F F F"
Hg       0.00000000       0.00000000       0.00000000       0.00000000       0.00000000       0.02792047
Hg       0.00000000       0.00000000       4.39090909       0.00000000       0.00000000      -0.02792047
2
Properties=species:S:1:pos:R:3:forces:R:3 energy=-0.0504041477760261 pbc="F F F"
Hg       0.00000000       0.00000000       0.00000000       0.00000000       0.00000000       0.03351529
Hg       0.00000000       0.00000000       4.45050505       0.00000000       0.00000000      -0.03351529
2
Properties=species:S:1:pos:R:3:forces:R:3 energy=-0.04828007416011246 pbc="F F F"
Hg       0.00000000       0.00000000       0.00000000       0.00000000       0.00000000       0.03746582
Hg       0.00000000       0.00000000       4.51010101       0.00000000       0.00000000      -0.03746582
2
Properties=species:S:1:pos:R:3:forces:R:3 energy=-0.04597616704547397 pbc="F F F"
Hg       0.00000000       0.00000000       0.00000000       0.00000000       0.00000000       0.03953010
Hg       0.00000000       0.00000000       4.56969697       0.00000000       0.00000000      -0.03953010
2
Properties=species:S:1:pos:R:3:forces:R:3 energy=-0.04360641939670873 pbc="F F F"
Hg       0.00000000       0.00000000       0.00000000       0.00000000       0.00000000       0.03969596
Hg       0.00000000       0.00000000       4.62929293       0.00000000       0.00000000      -0.03969596
2
Properties=species:S:1:pos:R:3:forces:R:3 energy=-0.04127792510023066 pbc="F F F"
Hg       0.00000000       0.00000000       0.00000000       0.00000000       0.00000000       0.03819653
Hg       0.00000000       0.00000000       4.68888889       0.00000000       0.00000000      -0.03819653
2
Properties=species:S:1:pos:R:3:forces:R:3 energy=-0.03907811732313668 pbc="F F F"
Hg       0.00000000       0.00000000       0.00000000       0.00000000       0.00000000       0.03546743
Hg       0.00000000       0.00000000       4.74848485       0.00000000       0.00000000      -0.03546743
2
Properties=species:S:1:pos:R:3:forces:R:3 energy=-0.03706405210517925 pbc="F F F"
Hg       0.00000000       0.00000000       0.00000000       0.00000000       0.00000000       0.03205337
Hg       0.00000000       0.00000000       4.80808081       0.00000000       0.00000000      -0.03205337
2
Properties=species:S:1:pos:R:3:forces:R:3 energy=-0.035260765063277855 pbc="F F F"
Hg       0.00000000       0.00000000       0.00000000       0.00000000       0.00000000       0.02847430
Hg       0.00000000       0.00000000       4.86767677       0.00000000       0.00000000      -0.02847430
2
Properties=species:S:1:pos:R:3:forces:R:3 energy=-0.033666334123020135 pbc="F F F"
Hg       0.00000000       0.00000000       0.00000000       0.00000000       0.00000000       0.02508069
Hg       0.00000000       0.00000000       4.92727273       0.00000000       0.00000000      -0.02508069
2
Properties=species:S:1:pos:R:3:forces:R:3 energy=-0.03226619767192398 pbc="F F F"
Hg       0.00000000       0.00000000       0.00000000       0.00000000       0.00000000       0.02194047
Hg       0.00000000       0.00000000       4.98686869       0.00000000       0.00000000      -0.02194047
2
Properties=species:S:1:pos:R:3:forces:R:3 energy=-0.031050590324958677 pbc="F F F"
Hg       0.00000000       0.00000000       0.00000000       0.00000000       0.00000000       0.01882403
Hg       0.00000000       0.00000000       5.04646465       0.00000000       0.00000000      -0.01882403
2
Properties=species:S:1:pos:R:3:forces:R:3 energy=-0.030030389928993186 pbc="F F F"
Hg       0.00000000       0.00000000       0.00000000       0.00000000       0.00000000       0.01531061
Hg       0.00000000       0.00000000       5.10606061       0.00000000       0.00000000      -0.01531061
2
Properties=species:S:1:pos:R:3:forces:R:3 energy=-0.029241522092493415 pbc="F F F"
Hg       0.00000000       0.00000000       0.00000000       0.00000000       0.00000000       0.01100829
Hg       0.00000000       0.00000000       5.16565657       0.00000000       0.00000000      -0.01100829
2
Properties=species:S:1:pos:R:3:forces:R:3 energy=-0.028736984535860922 pbc="F F F"
Hg       0.00000000       0.00000000       0.00000000       0.00000000       0.00000000       0.00578227
Hg       0.00000000       0.00000000       5.22525253       0.00000000       0.00000000      -0.00578227
2
Properties=species:S:1:pos:R:3:forces:R:3 energy=-0.028564277508653042 pbc="F F F"
Hg       0.00000000       0.00000000       0.00000000       0.00000000       0.00000000      -0.00001842
Hg       0.00000000       0.00000000       5.28484848       0.00000000       0.00000000       0.00001842
2
Properties=species:S:1:pos:R:3:forces:R:3 energy=-0.028728262596575675 pbc="F F F"
Hg       0.00000000       0.00000000       0.00000000       0.00000000       0.00000000      -0.00523399
Hg       0.00000000       0.00000000       5.34444444       0.00000000       0.00000000       0.00523399
2
Properties=species:S:1:pos:R:3:forces:R:3 energy=-0.02913536745814517 pbc="F F F"
Hg       0.00000000       0.00000000       0.00000000       0.00000000       0.00000000      -0.00780969
Hg       0.00000000       0.00000000       5.40404040       0.00000000       0.00000000       0.00780969
2
Properties=species:S:1:pos:R:3:forces:R:3 energy=-0.02958081942071044 pbc="F F F"
Hg       0.00000000       0.00000000       0.00000000       0.00000000       0.00000000      -0.00657621
Hg       0.00000000       0.00000000       5.46363636       0.00000000       0.00000000       0.00657621
2
Properties=species:S:1:pos:R:3:forces:R:3 energy=-0.029882809726673447 pbc="F F F"
Hg       0.00000000       0.00000000       0.00000000       0.00000000       0.00000000      -0.00350283
Hg       0.00000000       0.00000000       5.52323232       0.00000000       0.00000000       0.00350283
2
Properties=species:S:1:pos:R:3:forces:R:3 energy=-0.029996954776821797 pbc="F F F"
Hg       0.00000000       0.00000000       0.00000000       0.00000000       0.00000000      -0.00028507
Hg       0.00000000       0.00000000       5.58282828       0.00000000       0.00000000       0.00028507
2
Properties=species:S:1:pos:R:3:forces:R:3 energy=-0.02990769180430814 pbc="F F F"
Hg       0.00000000       0.00000000       0.00000000       0.00000000       0.00000000       0.00334502
Hg       0.00000000       0.00000000       5.64242424       0.00000000       0.00000000      -0.00334502
2
Properties=species:S:1:pos:R:3:forces:R:3 energy=-0.029599411493895188 pbc="F F F"
Hg       0.00000000       0.00000000       0.00000000       0.00000000       0.00000000       0.00687523
Hg       0.00000000       0.00000000       5.70202020       0.00000000       0.00000000      -0.00687523
2
Properties=species:S:1:pos:R:3:forces:R:3 energy=-0.0291241635492192 pbc="F F F"
Hg       0.00000000       0.00000000       0.00000000       0.00000000       0.00000000       0.00862803
Hg       0.00000000       0.00000000       5.76161616       0.00000000       0.00000000      -0.00862803
2
Properties=species:S:1:pos:R:3:forces:R:3 energy=-0.028622338301097366 pbc="F F F"
Hg       0.00000000       0.00000000       0.00000000       0.00000000       0.00000000       0.00793230
Hg       0.00000000       0.00000000       5.82121212       0.00000000       0.00000000      -0.00793230
2
Properties=species:S:1:pos:R:3:forces:R:3 energy=-0.028184766256133198 pbc="F F F"
Hg       0.00000000       0.00000000       0.00000000       0.00000000       0.00000000       0.00686349
Hg       0.00000000       0.00000000       5.88080808       0.00000000       0.00000000      -0.00686349
2
Properties=species:S:1:pos:R:3:forces:R:3 energy=-0.027789830210257896 pbc="F F F"
Hg       0.00000000       0.00000000       0.00000000       0.00000000       0.00000000       0.00646803
Hg       0.00000000       0.00000000       5.94040404       0.00000000       0.00000000      -0.00646803
2
Properties=species:S:1:pos:R:3:forces:R:3 energy=-0.02741228360195635 pbc="F F F"
Hg       0.00000000       0.00000000       0.00000000       0.00000000       0.00000000       0.00617705
Hg       0.00000000       0.00000000       6.00000000       0.00000000       0.00000000      -0.00617705
