2
Properties=species:S:1:pos:R:3:forces:R:3 energy=46599.41132314555 pbc="F F F"
I        0.00000000       0.00000000       0.00000000       0.00000000       0.00000000 -1124176.25000000
I        0.00000000       0.00000000       0.10000000       0.00000000       0.00000000 1124176.25000000
2
Properties=species:S:1:pos:R:3:forces:R:3 energy=13698.926948145547 pbc="F F F"
I        0.00000000       0.00000000       0.00000000       0.00000000       0.00000000 -242547.29687500
I        0.00000000       0.00000000       0.15959596       0.00000000       0.00000000  242547.29687500
2
Properties=species:S:1:pos:R:3:forces:R:3 energy=5354.359077051797 pbc="F F F"
I        0.00000000       0.00000000       0.00000000       0.00000000       0.00000000  -75408.71875000
I        0.00000000       0.00000000       0.21919192       0.00000000       0.00000000   75408.71875000
2
Properties=species:S:1:pos:R:3:forces:R:3 energy=2509.0155711924217 pbc="F F F"
I        0.00000000       0.00000000       0.00000000       0.00000000       0.00000000  -28695.76757812
I        0.00000000       0.00000000       0.27878788       0.00000000       0.00000000   28695.76757812
2
Properties=species:S:1:pos:R:3:forces:R:3 energy=1363.0965038159447 pbc="F F F"
I        0.00000000       0.00000000       0.00000000       0.00000000       0.00000000  -12347.87597656
I        0.00000000       0.00000000       0.33838384       0.00000000       0.00000000   12347.87597656
2
Properties=species:S:1:pos:R:3:forces:R:3 energy=850.0323558730615 pbc="F F F"
I        0.00000000       0.00000000       0.00000000       0.00000000       0.00000000   -5801.35791016
I        0.00000000       0.00000000       0.39797980       0.00000000       0.00000000    5801.35791016
2
Properties=species:S:1:pos:R:3:forces:R:3 energy=600.1738353779203 pbc="F F F"
I        0.00000000       0.00000000       0.00000000       0.00000000       0.00000000   -2961.67333984
I        0.00000000       0.00000000       0.45757576       0.00000000       0.00000000    2961.67333984
2
Properties=species:S:1:pos:R:3:forces:R:3 energy=466.6597362885048 pbc="F F F"
I        0.00000000       0.00000000       0.00000000       0.00000000       0.00000000   -1690.82751465
I        0.00000000       0.00000000       0.51717172       0.00000000       0.00000000    1690.82751465
2
Properties=species:S:1:pos:R:3:forces:R:3 energy=385.78336305450995 pbc="F F F"
I        0.00000000       0.00000000       0.00000000       0.00000000       0.00000000    -911.41436768
I        0.00000000       0.00000000       0.57676768       0.00000000       0.00000000     911.41436768
2
Properties=species:S:1:pos:R:3:forces:R:3 energy=354.72782114468583 pbc="F F F"
I        0.00000000       0.00000000       0.00000000       0.00000000       0.00000000    -370.94931030
I        0.00000000       0.00000000       0.63636364       0.00000000       0.00000000     370.94931030
2
Properties=species:S:1:pos:R:3:forces:R:3 energy=336.2575148907535 pbc="F F F"
I        0.00000000       0.00000000       0.00000000       0.00000000       0.00000000    -275.63293457
I        0.00000000       0.00000000       0.69595960       0.00000000       0.00000000     275.63293457
2
Properties=species:S:1:pos:R:3:forces:R:3 energy=318.3763810761301 pbc="F F F"
I        0.00000000       0.00000000       0.00000000       0.00000000       0.00000000    -353.64294434
I        0.00000000       0.00000000       0.75555556       0.00000000       0.00000000     353.64294434
2
Properties=species:S:1:pos:R:3:forces:R:3 energy=290.95783281526354 pbc="F F F"
I        0.00000000       0.00000000       0.00000000       0.00000000       0.00000000    -584.63043213
I        0.00000000       0.00000000       0.81515152       0.00000000       0.00000000     584.63043213
2
Properties=species:S:1:pos:R:3:forces:R:3 energy=249.26805972769876 pbc="F F F"
I        0.00000000       0.00000000       0.00000000       0.00000000       0.00000000    -784.25738525
I        0.00000000       0.00000000       0.87474747       0.00000000       0.00000000     784.25738525
2
Properties=species:S:1:pos:R:3:forces:R:3 energy=201.56255501867983 pbc="F F F"
I        0.00000000       0.00000000       0.00000000       0.00000000       0.00000000    -802.08807373
I        0.00000000       0.00000000       0.93434343       0.00000000       0.00000000     802.08807373
2
Properties=species:S:1:pos:R:3:forces:R:3 energy=166.8229013963326 pbc="F F F"
I        0.00000000       0.00000000       0.00000000       0.00000000       0.00000000    -280.81658936
I        0.00000000       0.00000000       0.99393939       0.00000000       0.00000000     280.81658936
2
Properties=species:S:1:pos:R:3:forces:R:3 energy=148.64147564883706 pbc="F F F"
I        0.00000000       0.00000000       0.00000000       0.00000000       0.00000000    -323.89682007
I        0.00000000       0.00000000       1.05353535       0.00000000       0.00000000     323.89682007
2
Properties=species:S:1:pos:R:3:forces:R:3 energy=129.21433803605277 pbc="F F F"
I        0.00000000       0.00000000       0.00000000       0.00000000       0.00000000    -329.19201660
I        0.00000000       0.00000000       1.11313131       0.00000000       0.00000000     329.19201660
2
Properties=species:S:1:pos:R:3:forces:R:3 energy=109.78438570888058 pbc="F F F"
I        0.00000000       0.00000000       0.00000000       0.00000000       0.00000000    -317.38595581
I        0.00000000       0.00000000       1.17272727       0.00000000       0.00000000     317.38595581
2
Properties=species:S:1:pos:R:3:forces:R:3 energy=91.83282759213506 pbc="F F F"
I        0.00000000       0.00000000       0.00000000       0.00000000       0.00000000    -286.01556396
I        0.00000000       0.00000000       1.23232323       0.00000000       0.00000000     286.01556396
2
Properties=species:S:1:pos:R:3:forces:R:3 energy=75.52488601534391 pbc="F F F"
I        0.00000000       0.00000000       0.00000000       0.00000000       0.00000000    -260.57846069
I        0.00000000       0.00000000       1.29191919       0.00000000       0.00000000     260.57846069
2
Properties=species:S:1:pos:R:3:forces:R:3 energy=61.008525627108575 pbc="F F F"
I        0.00000000       0.00000000       0.00000000       0.00000000       0.00000000    -224.86346436
I        0.00000000       0.00000000       1.35151515       0.00000000       0.00000000     224.86346436
2
Properties=species:S:1:pos:R:3:forces:R:3 energy=48.80236999489176 pbc="F F F"
I        0.00000000       0.00000000       0.00000000       0.00000000       0.00000000    -184.92372131
I        0.00000000       0.00000000       1.41111111       0.00000000       0.00000000     184.92372131
2
Properties=species:S:1:pos:R:3:forces:R:3 energy=38.89281615533436 pbc="F F F"
I        0.00000000       0.00000000       0.00000000       0.00000000       0.00000000    -148.60403442
I        0.00000000       0.00000000       1.47070707       0.00000000       0.00000000     148.60403442
2
Properties=species:S:1:pos:R:3:forces:R:3 energy=30.952942917856387 pbc="F F F"
I        0.00000000       0.00000000       0.00000000       0.00000000       0.00000000    -119.05767822
I        0.00000000       0.00000000       1.53030303       0.00000000       0.00000000     119.05767822
2
Properties=species:S:1:pos:R:3:forces:R:3 energy=24.56829137072443 pbc="F F F"
I        0.00000000       0.00000000       0.00000000       0.00000000       0.00000000     -96.21022034
I        0.00000000       0.00000000       1.58989899       0.00000000       0.00000000      96.21022034
2
Properties=species:S:1:pos:R:3:forces:R:3 energy=19.381668907248734 pbc="F F F"
I        0.00000000       0.00000000       0.00000000       0.00000000       0.00000000     -78.59123993
I        0.00000000       0.00000000       1.64949495       0.00000000       0.00000000      78.59123993
2
Properties=species:S:1:pos:R:3:forces:R:3 energy=15.125382413318246 pbc="F F F"
I        0.00000000       0.00000000       0.00000000       0.00000000       0.00000000     -64.78832245
I        0.00000000       0.00000000       1.70909091       0.00000000       0.00000000      64.78832245
2
Properties=species:S:1:pos:R:3:forces:R:3 energy=11.60341318193436 pbc="F F F"
I        0.00000000       0.00000000       0.00000000       0.00000000       0.00000000     -53.80965042
I        0.00000000       0.00000000       1.76868687       0.00000000       0.00000000      53.80965042
2
Properties=species:S:1:pos:R:3:forces:R:3 energy=8.671899974661322 pbc="F F F"
I        0.00000000       0.00000000       0.00000000       0.00000000       0.00000000     -44.83249283
I        0.00000000       0.00000000       1.82828283       0.00000000       0.00000000      44.83249283
2
Properties=species:S:1:pos:R:3:forces:R:3 energy=6.236537928781181 pbc="F F F"
I        0.00000000       0.00000000       0.00000000       0.00000000       0.00000000     -37.03524780
I        0.00000000       0.00000000       1.88787879       0.00000000       0.00000000      37.03524780
2
Properties=species:S:1:pos:R:3:forces:R:3 energy=4.244535567548363 pbc="F F F"
I        0.00000000       0.00000000       0.00000000       0.00000000       0.00000000     -29.91690254
I        0.00000000       0.00000000       1.94747475       0.00000000       0.00000000      29.91690254
2
Properties=species:S:1:pos:R:3:forces:R:3 energy=2.655964251783101 pbc="F F F"
I        0.00000000       0.00000000       0.00000000       0.00000000       0.00000000     -23.54978371
I        0.00000000       0.00000000       2.00707071       0.00000000       0.00000000      23.54978371
2
Properties=species:S:1:pos:R:3:forces:R:3 energy=1.4152902545927613 pbc="F F F"
I        0.00000000       0.00000000       0.00000000       0.00000000       0.00000000     -18.29623985
I        0.00000000       0.00000000       2.06666667       0.00000000       0.00000000      18.29623985
2
Properties=species:S:1:pos:R:3:forces:R:3 energy=0.4499955809997163 pbc="F F F"
I        0.00000000       0.00000000       0.00000000       0.00000000       0.00000000     -14.29835320
I        0.00000000       0.00000000       2.12626263       0.00000000       0.00000000      14.29835320
2
Properties=species:S:1:pos:R:3:forces:R:3 energy=-0.30979620861829826 pbc="F F F"
I        0.00000000       0.00000000       0.00000000       0.00000000       0.00000000     -11.34531879
I        0.00000000       0.00000000       2.18585859       0.00000000       0.00000000      11.34531879
2
Properties=species:S:1:pos:R:3:forces:R:3 energy=-0.9161701888071176 pbc="F F F"
I        0.00000000       0.00000000       0.00000000       0.00000000       0.00000000      -9.09512424
I        0.00000000       0.00000000       2.24545455       0.00000000       0.00000000       9.09512424
2
Properties=species:S:1:pos:R:3:forces:R:3 energy=-1.4023712216051123 pbc="F F F"
I        0.00000000       0.00000000       0.00000000       0.00000000       0.00000000      -7.27729845
I        0.00000000       0.00000000       2.30505051       0.00000000       0.00000000       7.27729845
2
Properties=species:S:1:pos:R:3:forces:R:3 energy=-1.7889565372143137 pbc="F F F"
I        0.00000000       0.00000000       0.00000000       0.00000000       0.00000000      -5.73321962
I        0.00000000       0.00000000       2.36464646       0.00000000       0.00000000       5.73321962
2
Properties=species:S:1:pos:R:3:forces:R:3 energy=-2.0893911431593493 pbc="F F F"
I        0.00000000       0.00000000       0.00000000       0.00000000       0.00000000      -4.37470484
I        0.00000000       0.00000000       2.42424242       0.00000000       0.00000000       4.37470484
2
Properties=species:S:1:pos:R:3:forces:R:3 energy=-2.3129584983657643 pbc="F F F"
I        0.00000000       0.00000000       0.00000000       0.00000000       0.00000000      -3.14620948
I        0.00000000       0.00000000       2.48383838       0.00000000       0.00000000       3.14620948
2
Properties=species:S:1:pos:R:3:forces:R:3 energy=-2.4662785357564956 pbc="F F F"
I        0.00000000       0.00000000       0.00000000       0.00000000       0.00000000      -2.01355696
I        0.00000000       0.00000000       2.54343434       0.00000000       0.00000000       2.01355696
2
Properties=species:S:1:pos:R:3:forces:R:3 energy=-2.5547022548844156 pbc="F F F"
I        0.00000000       0.00000000       0.00000000       0.00000000       0.00000000      -0.96983212
I        0.00000000       0.00000000       2.60303030       0.00000000       0.00000000       0.96983212
2
Properties=species:S:1:pos:R:3:forces:R:3 energy=-2.5841104222170785 pbc="F F F"
I        0.00000000       0.00000000       0.00000000       0.00000000       0.00000000      -0.03929120
I        0.00000000       0.00000000       2.66262626       0.00000000       0.00000000       0.03929120
2
Properties=species:S:1:pos:R:3:forces:R:3 energy=-2.56247193432643 pbc="F F F"
I        0.00000000       0.00000000       0.00000000       0.00000000       0.00000000       0.73622227
I        0.00000000       0.00000000       2.72222222       0.00000000       0.00000000      -0.73622227
2
Properties=species:S:1:pos:R:3:forces:R:3 energy=-2.5000993464167247 pbc="F F F"
I        0.00000000       0.00000000       0.00000000       0.00000000       0.00000000       1.32459283
I        0.00000000       0.00000000       2.78181818       0.00000000       0.00000000      -1.32459283
2
Properties=species:S:1:pos:R:3:forces:R:3 energy=-2.4083500977862884 pbc="F F F"
I        0.00000000       0.00000000       0.00000000       0.00000000       0.00000000       1.72487926
I        0.00000000       0.00000000       2.84141414       0.00000000       0.00000000      -1.72487926
2
Properties=species:S:1:pos:R:3:forces:R:3 energy=-2.2975937740290315 pbc="F F F"
I        0.00000000       0.00000000       0.00000000       0.00000000       0.00000000       1.97055697
I        0.00000000       0.00000000       2.90101010       0.00000000       0.00000000      -1.97055697
2
Properties=species:S:1:pos:R:3:forces:R:3 energy=-2.1754550928190954 pbc="F F F"
I        0.00000000       0.00000000       0.00000000       0.00000000       0.00000000       2.11655664
I        0.00000000       0.00000000       2.96060606       0.00000000       0.00000000      -2.11655664
2
Properties=species:S:1:pos:R:3:forces:R:3 energy=-2.0462481683008678 pbc="F F F"
I        0.00000000       0.00000000       0.00000000       0.00000000       0.00000000       2.21470046
I        0.00000000       0.00000000       3.02020202       0.00000000       0.00000000      -2.21470046
2
Properties=species:S:1:pos:R:3:forces:R:3 energy=-1.9119245687295374 pbc="F F F"
I        0.00000000       0.00000000       0.00000000       0.00000000       0.00000000       2.28921819
I        0.00000000       0.00000000       3.07979798       0.00000000       0.00000000      -2.28921819
2
Properties=species:S:1:pos:R:3:forces:R:3 energy=-1.7740651104623377 pbc="F F F"
I        0.00000000       0.00000000       0.00000000       0.00000000       0.00000000       2.32913733
I        0.00000000       0.00000000       3.13939394       0.00000000       0.00000000      -2.32913733
2
Properties=species:S:1:pos:R:3:forces:R:3 energy=-1.6356150280274784 pbc="F F F"
I        0.00000000       0.00000000       0.00000000       0.00000000       0.00000000       2.30359912
I        0.00000000       0.00000000       3.19898990       0.00000000       0.00000000      -2.30359912
2
Properties=species:S:1:pos:R:3:forces:R:3 energy=-1.501290469961882 pbc="F F F"
I        0.00000000       0.00000000       0.00000000       0.00000000       0.00000000       2.18862128
I        0.00000000       0.00000000       3.25858586       0.00000000       0.00000000      -2.18862128
2
Properties=species:S:1:pos:R:3:forces:R:3 energy=-1.3764929525100063 pbc="F F F"
I        0.00000000       0.00000000       0.00000000       0.00000000       0.00000000       1.98690140
I        0.00000000       0.00000000       3.31818182       0.00000000       0.00000000      -1.98690140
2
Properties=species:S:1:pos:R:3:forces:R:3 energy=-1.265599245184589 pbc="F F F"
I        0.00000000       0.00000000       0.00000000       0.00000000       0.00000000       1.72865009
I        0.00000000       0.00000000       3.37777778       0.00000000       0.00000000      -1.72865009
2
Properties=species:S:1:pos:R:3:forces:R:3 energy=-1.1707327718466913 pbc="F F F"
I        0.00000000       0.00000000       0.00000000       0.00000000       0.00000000       1.45600617
I        0.00000000       0.00000000       3.43737374       0.00000000       0.00000000      -1.45600617
2
Properties=species:S:1:pos:R:3:forces:R:3 energy=-1.0916209732478046 pbc="F F F"
I        0.00000000       0.00000000       0.00000000       0.00000000       0.00000000       1.20463276
I        0.00000000       0.00000000       3.49696970       0.00000000       0.00000000      -1.20463276
2
Properties=species:S:1:pos:R:3:forces:R:3 energy=-1.0263240756066652 pbc="F F F"
I        0.00000000       0.00000000       0.00000000       0.00000000       0.00000000       0.99430114
I        0.00000000       0.00000000       3.55656566       0.00000000       0.00000000      -0.99430114
2
Properties=species:S:1:pos:R:3:forces:R:3 energy=-0.97219143756587 pbc="F F F"
I        0.00000000       0.00000000       0.00000000       0.00000000       0.00000000       0.82980853
I        0.00000000       0.00000000       3.61616162       0.00000000       0.00000000      -0.82980853
2
Properties=species:S:1:pos:R:3:forces:R:3 energy=-0.9265943652192801 pbc="F F F"
I        0.00000000       0.00000000       0.00000000       0.00000000       0.00000000       0.70663977
I        0.00000000       0.00000000       3.67575758       0.00000000       0.00000000      -0.70663977
2
Properties=species:S:1:pos:R:3:forces:R:3 energy=-0.8873128993232543 pbc="F F F"
I        0.00000000       0.00000000       0.00000000       0.00000000       0.00000000       0.61634195
I        0.00000000       0.00000000       3.73535354       0.00000000       0.00000000      -0.61634195
2
Properties=species:S:1:pos:R:3:forces:R:3 energy=-0.8526578932335079 pbc="F F F"
I        0.00000000       0.00000000       0.00000000       0.00000000       0.00000000       0.54992718
I        0.00000000       0.00000000       3.79494949       0.00000000       0.00000000      -0.54992718
2
Properties=species:S:1:pos:R:3:forces:R:3 energy=-0.8214483369101788 pbc="F F F"
I        0.00000000       0.00000000       0.00000000       0.00000000       0.00000000       0.49955940
I        0.00000000       0.00000000       3.85454545       0.00000000       0.00000000      -0.49955940
2
Properties=species:S:1:pos:R:3:forces:R:3 energy=-0.7929166047157514 pbc="F F F"
I        0.00000000       0.00000000       0.00000000       0.00000000       0.00000000       0.45922551
I        0.00000000       0.00000000       3.91414141       0.00000000       0.00000000      -0.45922551
2
Properties=species:S:1:pos:R:3:forces:R:3 energy=-0.7665960683974582 pbc="F F F"
I        0.00000000       0.00000000       0.00000000       0.00000000       0.00000000       0.42478460
I        0.00000000       0.00000000       3.97373737       0.00000000       0.00000000      -0.42478460
2
Properties=species:S:1:pos:R:3:forces:R:3 energy=-0.7422195482755286 pbc="F F F"
I        0.00000000       0.00000000       0.00000000       0.00000000       0.00000000       0.39370647
I        0.00000000       0.00000000       4.03333333       0.00000000       0.00000000      -0.39370647
2
Properties=species:S:1:pos:R:3:forces:R:3 energy=-0.7196297988180153 pbc="F F F"
I        0.00000000       0.00000000       0.00000000       0.00000000       0.00000000       0.36465481
I        0.00000000       0.00000000       4.09292929       0.00000000       0.00000000      -0.36465481
2
Properties=species:S:1:pos:R:3:forces:R:3 energy=-0.6987255134162137 pbc="F F F"
I        0.00000000       0.00000000       0.00000000       0.00000000       0.00000000       0.33711311
I        0.00000000       0.00000000       4.15252525       0.00000000       0.00000000      -0.33711311
2
Properties=species:S:1:pos:R:3:forces:R:3 energy=-0.6794185201621409 pbc="F F F"
I        0.00000000       0.00000000       0.00000000       0.00000000       0.00000000       0.31111628
I        0.00000000       0.00000000       4.21212121       0.00000000       0.00000000      -0.31111628
2
Properties=species:S:1:pos:R:3:forces:R:3 energy=-0.6616042898846263 pbc="F F F"
I        0.00000000       0.00000000       0.00000000       0.00000000       0.00000000       0.28707182
I        0.00000000       0.00000000       4.27171717       0.00000000       0.00000000      -0.28707182
2
Properties=species:S:1:pos:R:3:forces:R:3 energy=-0.6451506993818487 pbc="F F F"
I        0.00000000       0.00000000       0.00000000       0.00000000       0.00000000       0.26559415
I        0.00000000       0.00000000       4.33131313       0.00000000       0.00000000      -0.26559415
2
Properties=species:S:1:pos:R:3:forces:R:3 energy=-0.6298849002244702 pbc="F F F"
I        0.00000000       0.00000000       0.00000000       0.00000000       0.00000000       0.24728030
I        0.00000000       0.00000000       4.39090909       0.00000000       0.00000000      -0.24728030
2
Properties=species:S:1:pos:R:3:forces:R:3 energy=-0.6156071870469609 pbc="F F F"
I        0.00000000       0.00000000       0.00000000       0.00000000       0.00000000       0.23244311
I        0.00000000       0.00000000       4.45050505       0.00000000       0.00000000      -0.23244311
2
Properties=species:S:1:pos:R:3:forces:R:3 energy=-0.6021144568510213 pbc="F F F"
I        0.00000000       0.00000000       0.00000000       0.00000000       0.00000000       0.22085857
I        0.00000000       0.00000000       4.51010101       0.00000000       0.00000000      -0.22085857
2
Properties=species:S:1:pos:R:3:forces:R:3 energy=-0.5892350217019127 pbc="F F F"
I        0.00000000       0.00000000       0.00000000       0.00000000       0.00000000       0.21164386
I        0.00000000       0.00000000       4.56969697       0.00000000       0.00000000      -0.21164386
2
Properties=species:S:1:pos:R:3:forces:R:3 energy=-0.5768697232620635 pbc="F F F"
I        0.00000000       0.00000000       0.00000000       0.00000000       0.00000000       0.20334949
I        0.00000000       0.00000000       4.62929293       0.00000000       0.00000000      -0.20334949
2
Properties=species:S:1:pos:R:3:forces:R:3 energy=-0.5650128871155012 pbc="F F F"
I        0.00000000       0.00000000       0.00000000       0.00000000       0.00000000       0.19430685
I        0.00000000       0.00000000       4.68888889       0.00000000       0.00000000      -0.19430685
2
Properties=species:S:1:pos:R:3:forces:R:3 energy=-0.5537530554466112 pbc="F F F"
I        0.00000000       0.00000000       0.00000000       0.00000000       0.00000000       0.18311816
I        0.00000000       0.00000000       4.74848485       0.00000000       0.00000000      -0.18311816
2
Properties=species:S:1:pos:R:3:forces:R:3 energy=-0.5432416981854107 pbc="F F F"
I        0.00000000       0.00000000       0.00000000       0.00000000       0.00000000       0.16920708
I        0.00000000       0.00000000       4.80808081       0.00000000       0.00000000      -0.16920708
2
Properties=species:S:1:pos:R:3:forces:R:3 energy=-0.5336274322384482 pbc="F F F"
I        0.00000000       0.00000000       0.00000000       0.00000000       0.00000000       0.15320158
I        0.00000000       0.00000000       4.86767677       0.00000000       0.00000000      -0.15320158
2
Properties=species:S:1:pos:R:3:forces:R:3 energy=-0.5249849410740096 pbc="F F F"
I        0.00000000       0.00000000       0.00000000       0.00000000       0.00000000       0.13702297
I        0.00000000       0.00000000       4.92727273       0.00000000       0.00000000      -0.13702297
2
Properties=species:S:1:pos:R:3:forces:R:3 energy=-0.5172422317129148 pbc="F F F"
I        0.00000000       0.00000000       0.00000000       0.00000000       0.00000000       0.12352411
I        0.00000000       0.00000000       4.98686869       0.00000000       0.00000000      -0.12352411
2
Properties=species:S:1:pos:R:3:forces:R:3 energy=-0.5101491393014517 pbc="F F F"
I        0.00000000       0.00000000       0.00000000       0.00000000       0.00000000       0.11570139
I        0.00000000       0.00000000       5.04646465       0.00000000       0.00000000      -0.11570139
2
Properties=species:S:1:pos:R:3:forces:R:3 energy=-0.5032988564754517 pbc="F F F"
I        0.00000000       0.00000000       0.00000000       0.00000000       0.00000000       0.11551772
I        0.00000000       0.00000000       5.10606061       0.00000000       0.00000000      -0.11551772
2
Properties=species:S:1:pos:R:3:forces:R:3 energy=-0.4962318945321979 pbc="F F F"
I        0.00000000       0.00000000       0.00000000       0.00000000       0.00000000       0.12262887
I        0.00000000       0.00000000       5.16565657       0.00000000       0.00000000      -0.12262887
2
Properties=species:S:1:pos:R:3:forces:R:3 energy=-0.4886051000282517 pbc="F F F"
I        0.00000000       0.00000000       0.00000000       0.00000000       0.00000000       0.13351171
I        0.00000000       0.00000000       5.22525253       0.00000000       0.00000000      -0.13351171
2
Properties=species:S:1:pos:R:3:forces:R:3 energy=-0.48036007145506476 pbc="F F F"
I        0.00000000       0.00000000       0.00000000       0.00000000       0.00000000       0.14241080
I        0.00000000       0.00000000       5.28484848       0.00000000       0.00000000      -0.14241080
2
Properties=species:S:1:pos:R:3:forces:R:3 energy=-0.47173499451276474 pbc="F F F"
I        0.00000000       0.00000000       0.00000000       0.00000000       0.00000000       0.14646435
I        0.00000000       0.00000000       5.34444444       0.00000000       0.00000000      -0.14646435
2
Properties=species:S:1:pos:R:3:forces:R:3 energy=-0.4628557589987293 pbc="F F F"
I        0.00000000       0.00000000       0.00000000       0.00000000       0.00000000       0.15306379
I        0.00000000       0.00000000       5.40404040       0.00000000       0.00000000      -0.15306379
2
Properties=species:S:1:pos:R:3:forces:R:3 energy=-0.4532349417545134 pbc="F F F"
I        0.00000000       0.00000000       0.00000000       0.00000000       0.00000000       0.17141186
I        0.00000000       0.00000000       5.46363636       0.00000000       0.00000000      -0.17141186
2
Properties=species:S:1:pos:R:3:forces:R:3 energy=-0.44246647929380556 pbc="F F F"
I        0.00000000       0.00000000       0.00000000       0.00000000       0.00000000       0.18767567
I        0.00000000       0.00000000       5.52323232       0.00000000       0.00000000      -0.18767567
2
Properties=species:S:1:pos:R:3:forces:R:3 energy=-0.4312839441026583 pbc="F F F"
I        0.00000000       0.00000000       0.00000000       0.00000000       0.00000000       0.18425959
I        0.00000000       0.00000000       5.58282828       0.00000000       0.00000000      -0.18425959
2
Properties=species:S:1:pos:R:3:forces:R:3 energy=-0.4207278935945202 pbc="F F F"
I        0.00000000       0.00000000       0.00000000       0.00000000       0.00000000       0.16987933
I        0.00000000       0.00000000       5.64242424       0.00000000       0.00000000      -0.16987933
2
Properties=species:S:1:pos:R:3:forces:R:3 energy=-0.41088767307982627 pbc="F F F"
I        0.00000000       0.00000000       0.00000000       0.00000000       0.00000000       0.16191532
I        0.00000000       0.00000000       5.70202020       0.00000000       0.00000000      -0.16191532
2
Properties=species:S:1:pos:R:3:forces:R:3 energy=-0.40137046689049055 pbc="F F F"
I        0.00000000       0.00000000       0.00000000       0.00000000       0.00000000       0.15607637
I        0.00000000       0.00000000       5.76161616       0.00000000       0.00000000      -0.15607637
2
Properties=species:S:1:pos:R:3:forces:R:3 energy=-0.3927904544893301 pbc="F F F"
I        0.00000000       0.00000000       0.00000000       0.00000000       0.00000000       0.12623182
I        0.00000000       0.00000000       5.82121212       0.00000000       0.00000000      -0.12623182
2
Properties=species:S:1:pos:R:3:forces:R:3 energy=-0.3868334003142224 pbc="F F F"
I        0.00000000       0.00000000       0.00000000       0.00000000       0.00000000       0.07261416
I        0.00000000       0.00000000       5.88080808       0.00000000       0.00000000      -0.07261416
2
Properties=species:S:1:pos:R:3:forces:R:3 energy=-0.38400365622632976 pbc="F F F"
I        0.00000000       0.00000000       0.00000000       0.00000000       0.00000000       0.02474111
I        0.00000000       0.00000000       5.94040404       0.00000000       0.00000000      -0.02474111
2
Properties=species:S:1:pos:R:3:forces:R:3 energy=-0.3832746087788903 pbc="F F F"
I        0.00000000       0.00000000       0.00000000       0.00000000       0.00000000       0.00598860
I        0.00000000       0.00000000       6.00000000       0.00000000       0.00000000      -0.00598860
