2
Properties=species:S:1:pos:R:3:forces:R:3 energy=82817.1325568955 pbc="F F F"
Ir       0.00000000       0.00000000       0.00000000       0.00000000       0.00000000 -2096613.25000000
Ir       0.00000000       0.00000000       0.10000000       0.00000000       0.00000000 2096613.25000000
2
Properties=species:S:1:pos:R:3:forces:R:3 energy=22754.593494395507 pbc="F F F"
Ir       0.00000000       0.00000000       0.00000000       0.00000000       0.00000000 -429233.03125000
Ir       0.00000000       0.00000000       0.15959596       0.00000000       0.00000000  429233.03125000
2
Properties=species:S:1:pos:R:3:forces:R:3 energy=8228.675525645509 pbc="F F F"
Ir       0.00000000       0.00000000       0.00000000       0.00000000       0.00000000 -128186.65625000
Ir       0.00000000       0.00000000       0.21919192       0.00000000       0.00000000  128186.65625000
2
Properties=species:S:1:pos:R:3:forces:R:3 energy=3473.4301643205513 pbc="F F F"
Ir       0.00000000       0.00000000       0.00000000       0.00000000       0.00000000  -46806.98437500
Ir       0.00000000       0.00000000       0.27878788       0.00000000       0.00000000   46806.98437500
2
Properties=species:S:1:pos:R:3:forces:R:3 energy=1639.3442268205513 pbc="F F F"
Ir       0.00000000       0.00000000       0.00000000       0.00000000       0.00000000  -19256.92773438
Ir       0.00000000       0.00000000       0.33838384       0.00000000       0.00000000   19256.92773438
2
Properties=species:S:1:pos:R:3:forces:R:3 energy=855.9746589526254 pbc="F F F"
Ir       0.00000000       0.00000000       0.00000000       0.00000000       0.00000000   -8604.85937500
Ir       0.00000000       0.00000000       0.39797980       0.00000000       0.00000000    8604.85937500
2
Properties=species:S:1:pos:R:3:forces:R:3 energy=495.26204299849985 pbc="F F F"
Ir       0.00000000       0.00000000       0.00000000       0.00000000       0.00000000   -4111.70654297
Ir       0.00000000       0.00000000       0.45757576       0.00000000       0.00000000    4111.70654297
2
Properties=species:S:1:pos:R:3:forces:R:3 energy=318.0998726073505 pbc="F F F"
Ir       0.00000000       0.00000000       0.00000000       0.00000000       0.00000000   -2090.44921875
Ir       0.00000000       0.00000000       0.51717172       0.00000000       0.00000000    2090.44921875
2
Properties=species:S:1:pos:R:3:forces:R:3 energy=225.41894918345034 pbc="F F F"
Ir       0.00000000       0.00000000       0.00000000       0.00000000       0.00000000   -1134.75244141
Ir       0.00000000       0.00000000       0.57676768       0.00000000       0.00000000    1134.75244141
2
Properties=species:S:1:pos:R:3:forces:R:3 energy=173.32468044797864 pbc="F F F"
Ir       0.00000000       0.00000000       0.00000000       0.00000000       0.00000000    -668.25366211
Ir       0.00000000       0.00000000       0.63636364       0.00000000       0.00000000     668.25366211
2
Properties=species:S:1:pos:R:3:forces:R:3 energy=141.0928232432086 pbc="F F F"
Ir       0.00000000       0.00000000       0.00000000       0.00000000       0.00000000    -441.11395264
Ir       0.00000000       0.00000000       0.69595960       0.00000000       0.00000000     441.11395264
2
Properties=species:S:1:pos:R:3:forces:R:3 energy=118.35220755053753 pbc="F F F"
Ir       0.00000000       0.00000000       0.00000000       0.00000000       0.00000000    -336.32415771
Ir       0.00000000       0.00000000       0.75555556       0.00000000       0.00000000     336.32415771
2
Properties=species:S:1:pos:R:3:forces:R:3 energy=99.81726514849977 pbc="F F F"
Ir       0.00000000       0.00000000       0.00000000       0.00000000       0.00000000    -291.60986328
Ir       0.00000000       0.00000000       0.81515152       0.00000000       0.00000000     291.60986328
2
Properties=species:S:1:pos:R:3:forces:R:3 energy=83.29620071648468 pbc="F F F"
Ir       0.00000000       0.00000000       0.00000000       0.00000000       0.00000000    -263.69302368
Ir       0.00000000       0.00000000       0.87474747       0.00000000       0.00000000     263.69302368
2
Properties=species:S:1:pos:R:3:forces:R:3 energy=68.16996521707264 pbc="F F F"
Ir       0.00000000       0.00000000       0.00000000       0.00000000       0.00000000    -245.84255981
Ir       0.00000000       0.00000000       0.93434343       0.00000000       0.00000000     245.84255981
2
Properties=species:S:1:pos:R:3:forces:R:3 energy=54.01417743534186 pbc="F F F"
Ir       0.00000000       0.00000000       0.00000000       0.00000000       0.00000000    -227.18876648
Ir       0.00000000       0.00000000       0.99393939       0.00000000       0.00000000     227.18876648
2
Properties=species:S:1:pos:R:3:forces:R:3 energy=41.36211684092278 pbc="F F F"
Ir       0.00000000       0.00000000       0.00000000       0.00000000       0.00000000    -195.95309448
Ir       0.00000000       0.00000000       1.05353535       0.00000000       0.00000000     195.95309448
2
Properties=species:S:1:pos:R:3:forces:R:3 energy=30.655874491666687 pbc="F F F"
Ir       0.00000000       0.00000000       0.00000000       0.00000000       0.00000000    -164.01344299
Ir       0.00000000       0.00000000       1.11313131       0.00000000       0.00000000     164.01344299
2
Properties=species:S:1:pos:R:3:forces:R:3 energy=21.876909114870436 pbc="F F F"
Ir       0.00000000       0.00000000       0.00000000       0.00000000       0.00000000    -128.67617798
Ir       0.00000000       0.00000000       1.17272727       0.00000000       0.00000000     128.67617798
2
Properties=species:S:1:pos:R:3:forces:R:3 energy=15.471420229018605 pbc="F F F"
Ir       0.00000000       0.00000000       0.00000000       0.00000000       0.00000000     -87.50473022
Ir       0.00000000       0.00000000       1.23232323       0.00000000       0.00000000      87.50473022
2
Properties=species:S:1:pos:R:3:forces:R:3 energy=11.09043657493482 pbc="F F F"
Ir       0.00000000       0.00000000       0.00000000       0.00000000       0.00000000     -62.28527451
Ir       0.00000000       0.00000000       1.29191919       0.00000000       0.00000000      62.28527451
2
Properties=species:S:1:pos:R:3:forces:R:3 energy=7.865959186649591 pbc="F F F"
Ir       0.00000000       0.00000000       0.00000000       0.00000000       0.00000000     -46.71685410
Ir       0.00000000       0.00000000       1.35151515       0.00000000       0.00000000      46.71685410
2
Properties=species:S:1:pos:R:3:forces:R:3 energy=5.425985624098317 pbc="F F F"
Ir       0.00000000       0.00000000       0.00000000       0.00000000       0.00000000     -36.13824463
Ir       0.00000000       0.00000000       1.41111111       0.00000000       0.00000000      36.13824463
2
Properties=species:S:1:pos:R:3:forces:R:3 energy=3.4438818707115804 pbc="F F F"
Ir       0.00000000       0.00000000       0.00000000       0.00000000       0.00000000     -31.13793373
Ir       0.00000000       0.00000000       1.47070707       0.00000000       0.00000000      31.13793373
2
Properties=species:S:1:pos:R:3:forces:R:3 energy=1.6641811658686234 pbc="F F F"
Ir       0.00000000       0.00000000       0.00000000       0.00000000       0.00000000     -28.71600533
Ir       0.00000000       0.00000000       1.53030303       0.00000000       0.00000000      28.71600533
2
Properties=species:S:1:pos:R:3:forces:R:3 energy=0.024612667005910784 pbc="F F F"
Ir       0.00000000       0.00000000       0.00000000       0.00000000       0.00000000     -26.20841408
Ir       0.00000000       0.00000000       1.58989899       0.00000000       0.00000000      26.20841408
2
Properties=species:S:1:pos:R:3:forces:R:3 energy=-1.449206624435571 pbc="F F F"
Ir       0.00000000       0.00000000       0.00000000       0.00000000       0.00000000     -23.19877243
Ir       0.00000000       0.00000000       1.64949495       0.00000000       0.00000000      23.19877243
2
Properties=species:S:1:pos:R:3:forces:R:3 energy=-2.7395815049262904 pbc="F F F"
Ir       0.00000000       0.00000000       0.00000000       0.00000000       0.00000000     -20.13832092
Ir       0.00000000       0.00000000       1.70909091       0.00000000       0.00000000      20.13832092
2
Properties=species:S:1:pos:R:3:forces:R:3 energy=-3.856383136533413 pbc="F F F"
Ir       0.00000000       0.00000000       0.00000000       0.00000000       0.00000000     -17.40906334
Ir       0.00000000       0.00000000       1.76868687       0.00000000       0.00000000      17.40906334
2
Properties=species:S:1:pos:R:3:forces:R:3 energy=-4.821671865194799 pbc="F F F"
Ir       0.00000000       0.00000000       0.00000000       0.00000000       0.00000000     -15.02696419
Ir       0.00000000       0.00000000       1.82828283       0.00000000       0.00000000      15.02696419
2
Properties=species:S:1:pos:R:3:forces:R:3 energy=-5.649785788119996 pbc="F F F"
Ir       0.00000000       0.00000000       0.00000000       0.00000000       0.00000000     -12.76332092
Ir       0.00000000       0.00000000       1.88787879       0.00000000       0.00000000      12.76332092
2
Properties=species:S:1:pos:R:3:forces:R:3 energy=-6.341522184717303 pbc="F F F"
Ir       0.00000000       0.00000000       0.00000000       0.00000000       0.00000000     -10.43389130
Ir       0.00000000       0.00000000       1.94747475       0.00000000       0.00000000      10.43389130
2
Properties=species:S:1:pos:R:3:forces:R:3 energy=-6.891680245475624 pbc="F F F"
Ir       0.00000000       0.00000000       0.00000000       0.00000000       0.00000000      -8.01970577
Ir       0.00000000       0.00000000       2.00707071       0.00000000       0.00000000       8.01970577
2
Properties=species:S:1:pos:R:3:forces:R:3 energy=-7.297130195726934 pbc="F F F"
Ir       0.00000000       0.00000000       0.00000000       0.00000000       0.00000000      -5.59196234
Ir       0.00000000       0.00000000       2.06666667       0.00000000       0.00000000       5.59196234
2
Properties=species:S:1:pos:R:3:forces:R:3 energy=-7.559730924177288 pbc="F F F"
Ir       0.00000000       0.00000000       0.00000000       0.00000000       0.00000000      -3.24205232
Ir       0.00000000       0.00000000       2.12626263       0.00000000       0.00000000       3.24205232
2
Properties=species:S:1:pos:R:3:forces:R:3 energy=-7.687221067530884 pbc="F F F"
Ir       0.00000000       0.00000000       0.00000000       0.00000000       0.00000000      -1.07711196
Ir       0.00000000       0.00000000       2.18585859       0.00000000       0.00000000       1.07711196
2
Properties=species:S:1:pos:R:3:forces:R:3 energy=-7.694107614229844 pbc="F F F"
Ir       0.00000000       0.00000000       0.00000000       0.00000000       0.00000000       0.78677660
Ir       0.00000000       0.00000000       2.24545455       0.00000000       0.00000000      -0.78677660
2
Properties=species:S:1:pos:R:3:forces:R:3 energy=-7.601315920860101 pbc="F F F"
Ir       0.00000000       0.00000000       0.00000000       0.00000000       0.00000000       2.25623584
Ir       0.00000000       0.00000000       2.30505051       0.00000000       0.00000000      -2.25623584
2
Properties=species:S:1:pos:R:3:forces:R:3 energy=-7.433822596024769 pbc="F F F"
Ir       0.00000000       0.00000000       0.00000000       0.00000000       0.00000000       3.29314661
Ir       0.00000000       0.00000000       2.36464646       0.00000000       0.00000000      -3.29314661
2
Properties=species:S:1:pos:R:3:forces:R:3 energy=-7.216864430614293 pbc="F F F"
Ir       0.00000000       0.00000000       0.00000000       0.00000000       0.00000000       3.92588139
Ir       0.00000000       0.00000000       2.42424242       0.00000000       0.00000000      -3.92588139
2
Properties=species:S:1:pos:R:3:forces:R:3 energy=-6.972401661343802 pbc="F F F"
Ir       0.00000000       0.00000000       0.00000000       0.00000000       0.00000000       4.23135090
Ir       0.00000000       0.00000000       2.48383838       0.00000000       0.00000000      -4.23135090
2
Properties=species:S:1:pos:R:3:forces:R:3 energy=-6.717154538299237 pbc="F F F"
Ir       0.00000000       0.00000000       0.00000000       0.00000000       0.00000000       4.30351734
Ir       0.00000000       0.00000000       2.54343434       0.00000000       0.00000000      -4.30351734
2
Properties=species:S:1:pos:R:3:forces:R:3 energy=-6.462244483808022 pbc="F F F"
Ir       0.00000000       0.00000000       0.00000000       0.00000000       0.00000000       4.23530340
Ir       0.00000000       0.00000000       2.60303030       0.00000000       0.00000000      -4.23530340
2
Properties=species:S:1:pos:R:3:forces:R:3 energy=-6.213383385741495 pbc="F F F"
Ir       0.00000000       0.00000000       0.00000000       0.00000000       0.00000000       4.11383438
Ir       0.00000000       0.00000000       2.66262626       0.00000000       0.00000000      -4.11383438
2
Properties=species:S:1:pos:R:3:forces:R:3 energy=-5.971665068845597 pbc="F F F"
Ir       0.00000000       0.00000000       0.00000000       0.00000000       0.00000000       4.00273085
Ir       0.00000000       0.00000000       2.72222222       0.00000000       0.00000000      -4.00273085
2
Properties=species:S:1:pos:R:3:forces:R:3 energy=-5.735760466141223 pbc="F F F"
Ir       0.00000000       0.00000000       0.00000000       0.00000000       0.00000000       3.91700244
Ir       0.00000000       0.00000000       2.78181818       0.00000000       0.00000000      -3.91700244
2
Properties=species:S:1:pos:R:3:forces:R:3 energy=-5.504759517632941 pbc="F F F"
Ir       0.00000000       0.00000000       0.00000000       0.00000000       0.00000000       3.83240938
Ir       0.00000000       0.00000000       2.84141414       0.00000000       0.00000000      -3.83240938
2
Properties=species:S:1:pos:R:3:forces:R:3 energy=-5.279683087004794 pbc="F F F"
Ir       0.00000000       0.00000000       0.00000000       0.00000000       0.00000000       3.71209168
Ir       0.00000000       0.00000000       2.90101010       0.00000000       0.00000000      -3.71209168
2
Properties=species:S:1:pos:R:3:forces:R:3 energy=-5.063655356132961 pbc="F F F"
Ir       0.00000000       0.00000000       0.00000000       0.00000000       0.00000000       3.52464724
Ir       0.00000000       0.00000000       2.96060606       0.00000000       0.00000000      -3.52464724
2
Properties=species:S:1:pos:R:3:forces:R:3 energy=-4.861142530139551 pbc="F F F"
Ir       0.00000000       0.00000000       0.00000000       0.00000000       0.00000000       3.25908303
Ir       0.00000000       0.00000000       3.02020202       0.00000000       0.00000000      -3.25908303
2
Properties=species:S:1:pos:R:3:forces:R:3 energy=-4.676436741948576 pbc="F F F"
Ir       0.00000000       0.00000000       0.00000000       0.00000000       0.00000000       2.93204856
Ir       0.00000000       0.00000000       3.07979798       0.00000000       0.00000000      -2.93204856
2
Properties=species:S:1:pos:R:3:forces:R:3 energy=-4.512119694042003 pbc="F F F"
Ir       0.00000000       0.00000000       0.00000000       0.00000000       0.00000000       2.58247852
Ir       0.00000000       0.00000000       3.13939394       0.00000000       0.00000000      -2.58247852
2
Properties=species:S:1:pos:R:3:forces:R:3 energy=-4.368152231760032 pbc="F F F"
Ir       0.00000000       0.00000000       0.00000000       0.00000000       0.00000000       2.25627232
Ir       0.00000000       0.00000000       3.19898990       0.00000000       0.00000000      -2.25627232
2
Properties=species:S:1:pos:R:3:forces:R:3 energy=-4.2420275701326995 pbc="F F F"
Ir       0.00000000       0.00000000       0.00000000       0.00000000       0.00000000       1.98767662
Ir       0.00000000       0.00000000       3.25858586       0.00000000       0.00000000      -1.98767662
2
Properties=species:S:1:pos:R:3:forces:R:3 energy=-4.129866278065997 pbc="F F F"
Ir       0.00000000       0.00000000       0.00000000       0.00000000       0.00000000       1.78737187
Ir       0.00000000       0.00000000       3.31818182       0.00000000       0.00000000      -1.78737187
2
Properties=species:S:1:pos:R:3:forces:R:3 energy=-4.027852483192133 pbc="F F F"
Ir       0.00000000       0.00000000       0.00000000       0.00000000       0.00000000       1.64385307
Ir       0.00000000       0.00000000       3.37777778       0.00000000       0.00000000      -1.64385307
2
Properties=species:S:1:pos:R:3:forces:R:3 energy=-3.9332550733287177 pbc="F F F"
Ir       0.00000000       0.00000000       0.00000000       0.00000000       0.00000000       1.53445804
Ir       0.00000000       0.00000000       3.43737374       0.00000000       0.00000000      -1.53445804
2
Properties=species:S:1:pos:R:3:forces:R:3 energy=-3.8447316825030216 pbc="F F F"
Ir       0.00000000       0.00000000       0.00000000       0.00000000       0.00000000       1.43668103
Ir       0.00000000       0.00000000       3.49696970       0.00000000       0.00000000      -1.43668103
2
Properties=species:S:1:pos:R:3:forces:R:3 energy=-3.7620980094733585 pbc="F F F"
Ir       0.00000000       0.00000000       0.00000000       0.00000000       0.00000000       1.33496737
Ir       0.00000000       0.00000000       3.55656566       0.00000000       0.00000000      -1.33496737
2
Properties=species:S:1:pos:R:3:forces:R:3 energy=-3.6858152051127298 pbc="F F F"
Ir       0.00000000       0.00000000       0.00000000       0.00000000       0.00000000       1.22344267
Ir       0.00000000       0.00000000       3.61616162       0.00000000       0.00000000      -1.22344267
2
Properties=species:S:1:pos:R:3:forces:R:3 energy=-3.616405384094462 pbc="F F F"
Ir       0.00000000       0.00000000       0.00000000       0.00000000       0.00000000       1.10551822
Ir       0.00000000       0.00000000       3.67575758       0.00000000       0.00000000      -1.10551822
2
Properties=species:S:1:pos:R:3:forces:R:3 energy=-3.5539858310163757 pbc="F F F"
Ir       0.00000000       0.00000000       0.00000000       0.00000000       0.00000000       0.99070168
Ir       0.00000000       0.00000000       3.73535354       0.00000000       0.00000000      -0.99070168
2
Properties=species:S:1:pos:R:3:forces:R:3 energy=-3.4980438508987395 pbc="F F F"
Ir       0.00000000       0.00000000       0.00000000       0.00000000       0.00000000       0.88976681
Ir       0.00000000       0.00000000       3.79494949       0.00000000       0.00000000      -0.88976681
2
Properties=species:S:1:pos:R:3:forces:R:3 energy=-3.447500022135719 pbc="F F F"
Ir       0.00000000       0.00000000       0.00000000       0.00000000       0.00000000       0.81041652
Ir       0.00000000       0.00000000       3.85454545       0.00000000       0.00000000      -0.81041652
2
Properties=species:S:1:pos:R:3:forces:R:3 energy=-3.4009681464384287 pbc="F F F"
Ir       0.00000000       0.00000000       0.00000000       0.00000000       0.00000000       0.75509131
Ir       0.00000000       0.00000000       3.91414141       0.00000000       0.00000000      -0.75509131
2
Properties=species:S:1:pos:R:3:forces:R:3 energy=-3.3570740556568768 pbc="F F F"
Ir       0.00000000       0.00000000       0.00000000       0.00000000       0.00000000       0.72102976
Ir       0.00000000       0.00000000       3.97373737       0.00000000       0.00000000      -0.72102976
2
Properties=species:S:1:pos:R:3:forces:R:3 energy=-3.314730701638821 pbc="F F F"
Ir       0.00000000       0.00000000       0.00000000       0.00000000       0.00000000       0.70183402
Ir       0.00000000       0.00000000       4.03333333       0.00000000       0.00000000      -0.70183402
2
Properties=species:S:1:pos:R:3:forces:R:3 energy=-3.2732861991601987 pbc="F F F"
Ir       0.00000000       0.00000000       0.00000000       0.00000000       0.00000000       0.68945211
Ir       0.00000000       0.00000000       4.09292929       0.00000000       0.00000000      -0.68945211
2
Properties=species:S:1:pos:R:3:forces:R:3 energy=-3.232575809846917 pbc="F F F"
Ir       0.00000000       0.00000000       0.00000000       0.00000000       0.00000000       0.67598188
Ir       0.00000000       0.00000000       4.15252525       0.00000000       0.00000000      -0.67598188
2
Properties=species:S:1:pos:R:3:forces:R:3 energy=-3.192867351487802 pbc="F F F"
Ir       0.00000000       0.00000000       0.00000000       0.00000000       0.00000000       0.65492553
Ir       0.00000000       0.00000000       4.21212121       0.00000000       0.00000000      -0.65492553
2
Properties=species:S:1:pos:R:3:forces:R:3 energy=-3.1547527144132887 pbc="F F F"
Ir       0.00000000       0.00000000       0.00000000       0.00000000       0.00000000       0.62193465
Ir       0.00000000       0.00000000       4.27171717       0.00000000       0.00000000      -0.62193465
2
Properties=species:S:1:pos:R:3:forces:R:3 energy=-3.119014331252007 pbc="F F F"
Ir       0.00000000       0.00000000       0.00000000       0.00000000       0.00000000       0.57509512
Ir       0.00000000       0.00000000       4.33131313       0.00000000       0.00000000      -0.57509512
2
Properties=species:S:1:pos:R:3:forces:R:3 energy=-3.086472208069587 pbc="F F F"
Ir       0.00000000       0.00000000       0.00000000       0.00000000       0.00000000       0.51493704
Ir       0.00000000       0.00000000       4.39090909       0.00000000       0.00000000      -0.51493704
2
Properties=species:S:1:pos:R:3:forces:R:3 energy=-3.0578486238248845 pbc="F F F"
Ir       0.00000000       0.00000000       0.00000000       0.00000000       0.00000000       0.44421118
Ir       0.00000000       0.00000000       4.45050505       0.00000000       0.00000000      -0.44421118
2
Properties=species:S:1:pos:R:3:forces:R:3 energy=-3.0336470042283343 pbc="F F F"
Ir       0.00000000       0.00000000       0.00000000       0.00000000       0.00000000       0.36742657
Ir       0.00000000       0.00000000       4.51010101       0.00000000       0.00000000      -0.36742657
2
Properties=species:S:1:pos:R:3:forces:R:3 energy=-3.014063870090445 pbc="F F F"
Ir       0.00000000       0.00000000       0.00000000       0.00000000       0.00000000       0.29015216
Ir       0.00000000       0.00000000       4.56969697       0.00000000       0.00000000      -0.29015216
2
Properties=species:S:1:pos:R:3:forces:R:3 energy=-2.998957225853269 pbc="F F F"
Ir       0.00000000       0.00000000       0.00000000       0.00000000       0.00000000       0.21816441
Ir       0.00000000       0.00000000       4.62929293       0.00000000       0.00000000      -0.21816441
2
Properties=species:S:1:pos:R:3:forces:R:3 energy=-2.987853210799953 pbc="F F F"
Ir       0.00000000       0.00000000       0.00000000       0.00000000       0.00000000       0.15659028
Ir       0.00000000       0.00000000       4.68888889       0.00000000       0.00000000      -0.15659028
2
Properties=species:S:1:pos:R:3:forces:R:3 energy=-2.980009747311897 pbc="F F F"
Ir       0.00000000       0.00000000       0.00000000       0.00000000       0.00000000       0.10922726
Ir       0.00000000       0.00000000       4.74848485       0.00000000       0.00000000      -0.10922726
2
Properties=species:S:1:pos:R:3:forces:R:3 energy=-2.974509321373984 pbc="F F F"
Ir       0.00000000       0.00000000       0.00000000       0.00000000       0.00000000       0.07815807
Ir       0.00000000       0.00000000       4.80808081       0.00000000       0.00000000      -0.07815807
2
Properties=species:S:1:pos:R:3:forces:R:3 energy=-2.9703649037801427 pbc="F F F"
Ir       0.00000000       0.00000000       0.00000000       0.00000000       0.00000000       0.06358808
Ir       0.00000000       0.00000000       4.86767677       0.00000000       0.00000000      -0.06358808
2
Properties=species:S:1:pos:R:3:forces:R:3 energy=-2.9666330532386036 pbc="F F F"
Ir       0.00000000       0.00000000       0.00000000       0.00000000       0.00000000       0.06389315
Ir       0.00000000       0.00000000       4.92727273       0.00000000       0.00000000      -0.06389315
2
Properties=species:S:1:pos:R:3:forces:R:3 energy=-2.9625190209514174 pbc="F F F"
Ir       0.00000000       0.00000000       0.00000000       0.00000000       0.00000000       0.07574899
Ir       0.00000000       0.00000000       4.98686869       0.00000000       0.00000000      -0.07574899
2
Properties=species:S:1:pos:R:3:forces:R:3 energy=-2.957468568693897 pbc="F F F"
Ir       0.00000000       0.00000000       0.00000000       0.00000000       0.00000000       0.09444852
Ir       0.00000000       0.00000000       5.04646465       0.00000000       0.00000000      -0.09444852
2
Properties=species:S:1:pos:R:3:forces:R:3 energy=-2.9512355989116155 pbc="F F F"
Ir       0.00000000       0.00000000       0.00000000       0.00000000       0.00000000       0.11447281
Ir       0.00000000       0.00000000       5.10606061       0.00000000       0.00000000      -0.11447281
2
Properties=species:S:1:pos:R:3:forces:R:3 energy=-2.943906320528097 pbc="F F F"
Ir       0.00000000       0.00000000       0.00000000       0.00000000       0.00000000       0.13034438
Ir       0.00000000       0.00000000       5.16565657       0.00000000       0.00000000      -0.13034438
2
Properties=species:S:1:pos:R:3:forces:R:3 energy=-2.93586895711398 pbc="F F F"
Ir       0.00000000       0.00000000       0.00000000       0.00000000       0.00000000       0.13774690
Ir       0.00000000       0.00000000       5.22525253       0.00000000       0.00000000      -0.13774690
2
Properties=species:S:1:pos:R:3:forces:R:3 energy=-2.9276897597224183 pbc="F F F"
Ir       0.00000000       0.00000000       0.00000000       0.00000000       0.00000000       0.13521329
Ir       0.00000000       0.00000000       5.28484848       0.00000000       0.00000000      -0.13521329
2
Properties=species:S:1:pos:R:3:forces:R:3 energy=-2.9198754271107803 pbc="F F F"
Ir       0.00000000       0.00000000       0.00000000       0.00000000       0.00000000       0.12673219
Ir       0.00000000       0.00000000       5.34444444       0.00000000       0.00000000      -0.12673219
2
Properties=species:S:1:pos:R:3:forces:R:3 energy=-2.912510674654371 pbc="F F F"
Ir       0.00000000       0.00000000       0.00000000       0.00000000       0.00000000       0.12174030
Ir       0.00000000       0.00000000       5.40404040       0.00000000       0.00000000      -0.12174030
2
Properties=species:S:1:pos:R:3:forces:R:3 energy=-2.90521899506728 pbc="F F F"
Ir       0.00000000       0.00000000       0.00000000       0.00000000       0.00000000       0.12327441
Ir       0.00000000       0.00000000       5.46363636       0.00000000       0.00000000      -0.12327441
2
Properties=species:S:1:pos:R:3:forces:R:3 energy=-2.897944445594541 pbc="F F F"
Ir       0.00000000       0.00000000       0.00000000       0.00000000       0.00000000       0.11887611
Ir       0.00000000       0.00000000       5.52323232       0.00000000       0.00000000      -0.11887611
2
Properties=species:S:1:pos:R:3:forces:R:3 energy=-2.891289089497116 pbc="F F F"
Ir       0.00000000       0.00000000       0.00000000       0.00000000       0.00000000       0.10329223
Ir       0.00000000       0.00000000       5.58282828       0.00000000       0.00000000      -0.10329223
2
Properties=species:S:1:pos:R:3:forces:R:3 energy=-2.8856227426614405 pbc="F F F"
Ir       0.00000000       0.00000000       0.00000000       0.00000000       0.00000000       0.08801912
Ir       0.00000000       0.00000000       5.64242424       0.00000000       0.00000000      -0.08801912
2
Properties=species:S:1:pos:R:3:forces:R:3 energy=-2.8806119471861398 pbc="F F F"
Ir       0.00000000       0.00000000       0.00000000       0.00000000       0.00000000       0.08142351
Ir       0.00000000       0.00000000       5.70202020       0.00000000       0.00000000      -0.08142351
2
Properties=species:S:1:pos:R:3:forces:R:3 energy=-2.8758606195270957 pbc="F F F"
Ir       0.00000000       0.00000000       0.00000000       0.00000000       0.00000000       0.07752246
Ir       0.00000000       0.00000000       5.76161616       0.00000000       0.00000000      -0.07752246
2
Properties=species:S:1:pos:R:3:forces:R:3 energy=-2.871573117908505 pbc="F F F"
Ir       0.00000000       0.00000000       0.00000000       0.00000000       0.00000000       0.06405538
Ir       0.00000000       0.00000000       5.82121212       0.00000000       0.00000000      -0.06405538
2
Properties=species:S:1:pos:R:3:forces:R:3 energy=-2.8684465381057036 pbc="F F F"
Ir       0.00000000       0.00000000       0.00000000       0.00000000       0.00000000       0.04031020
Ir       0.00000000       0.00000000       5.88080808       0.00000000       0.00000000      -0.04031020
2
Properties=species:S:1:pos:R:3:forces:R:3 energy=-2.866722760382702 pbc="F F F"
Ir       0.00000000       0.00000000       0.00000000       0.00000000       0.00000000       0.01853290
Ir       0.00000000       0.00000000       5.94040404       0.00000000       0.00000000      -0.01853290
2
Properties=species:S:1:pos:R:3:forces:R:3 energy=-2.865967480610822 pbc="F F F"
Ir       0.00000000       0.00000000       0.00000000       0.00000000       0.00000000       0.00964539
Ir       0.00000000       0.00000000       6.00000000       0.00000000       0.00000000      -0.00964539
