2
Properties=species:S:1:pos:R:3:forces:R:3 energy=25043.511805508697 pbc="F F F"
Kr       0.00000000       0.00000000       0.00000000       0.00000000       0.00000000 -582234.25000000
Kr       0.00000000       0.00000000       0.10000000       0.00000000       0.00000000  582234.25000000
2
Properties=species:S:1:pos:R:3:forces:R:3 energy=7627.823817227446 pbc="F F F"
Kr       0.00000000       0.00000000       0.00000000       0.00000000       0.00000000 -132508.10937500
Kr       0.00000000       0.00000000       0.15959596       0.00000000       0.00000000  132508.10937500
2
Properties=species:S:1:pos:R:3:forces:R:3 energy=2993.746424649321 pbc="F F F"
Kr       0.00000000       0.00000000       0.00000000       0.00000000       0.00000000  -42827.92187500
Kr       0.00000000       0.00000000       0.21919192       0.00000000       0.00000000   42827.92187500
2
Properties=species:S:1:pos:R:3:forces:R:3 energy=1353.0503797306137 pbc="F F F"
Kr       0.00000000       0.00000000       0.00000000       0.00000000       0.00000000  -16895.16015625
Kr       0.00000000       0.00000000       0.27878788       0.00000000       0.00000000   16895.16015625
2
Properties=species:S:1:pos:R:3:forces:R:3 energy=667.8125867650314 pbc="F F F"
Kr       0.00000000       0.00000000       0.00000000       0.00000000       0.00000000   -7532.71875000
Kr       0.00000000       0.00000000       0.33838384       0.00000000       0.00000000    7532.71875000
2
Properties=species:S:1:pos:R:3:forces:R:3 energy=350.6155347757496 pbc="F F F"
Kr       0.00000000       0.00000000       0.00000000       0.00000000       0.00000000   -3638.91552734
Kr       0.00000000       0.00000000       0.39797980       0.00000000       0.00000000    3638.91552734
2
Properties=species:S:1:pos:R:3:forces:R:3 energy=193.22185804011184 pbc="F F F"
Kr       0.00000000       0.00000000       0.00000000       0.00000000       0.00000000   -1862.06335449
Kr       0.00000000       0.00000000       0.45757576       0.00000000       0.00000000    1862.06335449
2
Properties=species:S:1:pos:R:3:forces:R:3 energy=110.97411638207478 pbc="F F F"
Kr       0.00000000       0.00000000       0.00000000       0.00000000       0.00000000    -997.02673340
Kr       0.00000000       0.00000000       0.51717172       0.00000000       0.00000000     997.02673340
2
Properties=species:S:1:pos:R:3:forces:R:3 energy=66.15188134751281 pbc="F F F"
Kr       0.00000000       0.00000000       0.00000000       0.00000000       0.00000000    -554.60351562
Kr       0.00000000       0.00000000       0.57676768       0.00000000       0.00000000     554.60351562
2
Properties=species:S:1:pos:R:3:forces:R:3 energy=40.83247305430983 pbc="F F F"
Kr       0.00000000       0.00000000       0.00000000       0.00000000       0.00000000    -318.92974854
Kr       0.00000000       0.00000000       0.63636364       0.00000000       0.00000000     318.92974854
2
Properties=species:S:1:pos:R:3:forces:R:3 energy=26.069528075543907 pbc="F F F"
Kr       0.00000000       0.00000000       0.00000000       0.00000000       0.00000000    -188.97386169
Kr       0.00000000       0.00000000       0.69595960       0.00000000       0.00000000     188.97386169
2
Properties=species:S:1:pos:R:3:forces:R:3 energy=17.207414427018115 pbc="F F F"
Kr       0.00000000       0.00000000       0.00000000       0.00000000       0.00000000    -115.19544220
Kr       0.00000000       0.00000000       0.75555556       0.00000000       0.00000000     115.19544220
2
Properties=species:S:1:pos:R:3:forces:R:3 energy=11.732776891619368 pbc="F F F"
Kr       0.00000000       0.00000000       0.00000000       0.00000000       0.00000000     -72.29543304
Kr       0.00000000       0.00000000       0.81515152       0.00000000       0.00000000      72.29543304
2
Properties=species:S:1:pos:R:3:forces:R:3 energy=8.2536763694961 pbc="F F F"
Kr       0.00000000       0.00000000       0.00000000       0.00000000       0.00000000     -46.54298401
Kr       0.00000000       0.00000000       0.87474747       0.00000000       0.00000000      46.54298401
2
Properties=species:S:1:pos:R:3:forces:R:3 energy=5.994420454747971 pbc="F F F"
Kr       0.00000000       0.00000000       0.00000000       0.00000000       0.00000000     -30.55137444
Kr       0.00000000       0.00000000       0.93434343       0.00000000       0.00000000      30.55137444
2
Properties=species:S:1:pos:R:3:forces:R:3 energy=4.480602523201878 pbc="F F F"
Kr       0.00000000       0.00000000       0.00000000       0.00000000       0.00000000     -21.15444565
Kr       0.00000000       0.00000000       0.99393939       0.00000000       0.00000000      21.15444565
2
Properties=species:S:1:pos:R:3:forces:R:3 energy=3.407922358497126 pbc="F F F"
Kr       0.00000000       0.00000000       0.00000000       0.00000000       0.00000000     -15.11139584
Kr       0.00000000       0.00000000       1.05353535       0.00000000       0.00000000      15.11139584
2
Properties=species:S:1:pos:R:3:forces:R:3 energy=2.6488747944208675 pbc="F F F"
Kr       0.00000000       0.00000000       0.00000000       0.00000000       0.00000000     -10.64814186
Kr       0.00000000       0.00000000       1.11313131       0.00000000       0.00000000      10.64814186
2
Properties=species:S:1:pos:R:3:forces:R:3 energy=2.1079862103660174 pbc="F F F"
Kr       0.00000000       0.00000000       0.00000000       0.00000000       0.00000000      -7.70812464
Kr       0.00000000       0.00000000       1.17272727       0.00000000       0.00000000       7.70812464
2
Properties=species:S:1:pos:R:3:forces:R:3 energy=1.7120671738629518 pbc="F F F"
Kr       0.00000000       0.00000000       0.00000000       0.00000000       0.00000000      -5.68728542
Kr       0.00000000       0.00000000       1.23232323       0.00000000       0.00000000       5.68728542
2
Properties=species:S:1:pos:R:3:forces:R:3 energy=1.4207438470486509 pbc="F F F"
Kr       0.00000000       0.00000000       0.00000000       0.00000000       0.00000000      -4.14471960
Kr       0.00000000       0.00000000       1.29191919       0.00000000       0.00000000       4.14471960
2
Properties=species:S:1:pos:R:3:forces:R:3 energy=1.212768745124289 pbc="F F F"
Kr       0.00000000       0.00000000       0.00000000       0.00000000       0.00000000      -2.87679362
Kr       0.00000000       0.00000000       1.35151515       0.00000000       0.00000000       2.87679362
2
Properties=species:S:1:pos:R:3:forces:R:3 energy=1.0720881157929438 pbc="F F F"
Kr       0.00000000       0.00000000       0.00000000       0.00000000       0.00000000      -1.89963961
Kr       0.00000000       0.00000000       1.41111111       0.00000000       0.00000000       1.89963961
2
Properties=species:S:1:pos:R:3:forces:R:3 energy=0.9794809921644174 pbc="F F F"
Kr       0.00000000       0.00000000       0.00000000       0.00000000       0.00000000      -1.26440012
Kr       0.00000000       0.00000000       1.47070707       0.00000000       0.00000000       1.26440012
2
Properties=species:S:1:pos:R:3:forces:R:3 energy=0.9152965170596125 pbc="F F F"
Kr       0.00000000       0.00000000       0.00000000       0.00000000       0.00000000      -0.93410856
Kr       0.00000000       0.00000000       1.53030303       0.00000000       0.00000000       0.93410856
2
Properties=species:S:1:pos:R:3:forces:R:3 energy=0.8637720927841519 pbc="F F F"
Kr       0.00000000       0.00000000       0.00000000       0.00000000       0.00000000      -0.82327211
Kr       0.00000000       0.00000000       1.58989899       0.00000000       0.00000000       0.82327211
2
Properties=species:S:1:pos:R:3:forces:R:3 energy=0.8147930104445055 pbc="F F F"
Kr       0.00000000       0.00000000       0.00000000       0.00000000       0.00000000      -0.83280355
Kr       0.00000000       0.00000000       1.64949495       0.00000000       0.00000000       0.83280355
2
Properties=species:S:1:pos:R:3:forces:R:3 energy=0.7637389933302697 pbc="F F F"
Kr       0.00000000       0.00000000       0.00000000       0.00000000       0.00000000      -0.88225770
Kr       0.00000000       0.00000000       1.70909091       0.00000000       0.00000000       0.88225770
2
Properties=species:S:1:pos:R:3:forces:R:3 energy=0.7098126220813322 pbc="F F F"
Kr       0.00000000       0.00000000       0.00000000       0.00000000       0.00000000      -0.92349279
Kr       0.00000000       0.00000000       1.76868687       0.00000000       0.00000000       0.92349279
2
Properties=species:S:1:pos:R:3:forces:R:3 energy=0.6543436833303444 pbc="F F F"
Kr       0.00000000       0.00000000       0.00000000       0.00000000       0.00000000      -0.93110526
Kr       0.00000000       0.00000000       1.82828283       0.00000000       0.00000000       0.93110526
2
Properties=species:S:1:pos:R:3:forces:R:3 energy=0.5997119692197634 pbc="F F F"
Kr       0.00000000       0.00000000       0.00000000       0.00000000       0.00000000      -0.89493883
Kr       0.00000000       0.00000000       1.88787879       0.00000000       0.00000000       0.89493883
2
Properties=species:S:1:pos:R:3:forces:R:3 energy=0.5484643823091937 pbc="F F F"
Kr       0.00000000       0.00000000       0.00000000       0.00000000       0.00000000      -0.81937611
Kr       0.00000000       0.00000000       1.94747475       0.00000000       0.00000000       0.81937611
2
Properties=species:S:1:pos:R:3:forces:R:3 energy=0.5025413110517362 pbc="F F F"
Kr       0.00000000       0.00000000       0.00000000       0.00000000       0.00000000      -0.71910214
Kr       0.00000000       0.00000000       2.00707071       0.00000000       0.00000000       0.71910214
2
Properties=species:S:1:pos:R:3:forces:R:3 energy=0.4629111531191589 pbc="F F F"
Kr       0.00000000       0.00000000       0.00000000       0.00000000       0.00000000      -0.61072022
Kr       0.00000000       0.00000000       2.06666667       0.00000000       0.00000000       0.61072022
2
Properties=species:S:1:pos:R:3:forces:R:3 energy=0.42965083494134404 pbc="F F F"
Kr       0.00000000       0.00000000       0.00000000       0.00000000       0.00000000      -0.50706136
Kr       0.00000000       0.00000000       2.12626263       0.00000000       0.00000000       0.50706136
2
Properties=species:S:1:pos:R:3:forces:R:3 energy=0.4022130916047492 pbc="F F F"
Kr       0.00000000       0.00000000       0.00000000       0.00000000       0.00000000      -0.41642696
Kr       0.00000000       0.00000000       2.18585859       0.00000000       0.00000000       0.41642696
2
Properties=species:S:1:pos:R:3:forces:R:3 energy=0.3796512201287451 pbc="F F F"
Kr       0.00000000       0.00000000       0.00000000       0.00000000       0.00000000      -0.34413978
Kr       0.00000000       0.00000000       2.24545455       0.00000000       0.00000000       0.34413978
2
Properties=species:S:1:pos:R:3:forces:R:3 energy=0.36075677886633467 pbc="F F F"
Kr       0.00000000       0.00000000       0.00000000       0.00000000       0.00000000      -0.29382688
Kr       0.00000000       0.00000000       2.30505051       0.00000000       0.00000000       0.29382688
2
Properties=species:S:1:pos:R:3:forces:R:3 energy=0.3441487465492713 pbc="F F F"
Kr       0.00000000       0.00000000       0.00000000       0.00000000       0.00000000      -0.26763707
Kr       0.00000000       0.00000000       2.36464646       0.00000000       0.00000000       0.26763707
2
Properties=species:S:1:pos:R:3:forces:R:3 energy=0.3283717475748261 pbc="F F F"
Kr       0.00000000       0.00000000       0.00000000       0.00000000       0.00000000      -0.26576883
Kr       0.00000000       0.00000000       2.42424242       0.00000000       0.00000000       0.26576883
2
Properties=species:S:1:pos:R:3:forces:R:3 energy=0.3120328256586147 pbc="F F F"
Kr       0.00000000       0.00000000       0.00000000       0.00000000       0.00000000      -0.28586403
Kr       0.00000000       0.00000000       2.48383838       0.00000000       0.00000000       0.28586403
2
Properties=species:S:1:pos:R:3:forces:R:3 energy=0.293967025537783 pbc="F F F"
Kr       0.00000000       0.00000000       0.00000000       0.00000000       0.00000000      -0.32258743
Kr       0.00000000       0.00000000       2.54343434       0.00000000       0.00000000       0.32258743
2
Properties=species:S:1:pos:R:3:forces:R:3 energy=0.27340764859508726 pbc="F F F"
Kr       0.00000000       0.00000000       0.00000000       0.00000000       0.00000000      -0.36807892
Kr       0.00000000       0.00000000       2.60303030       0.00000000       0.00000000       0.36807892
2
Properties=species:S:1:pos:R:3:forces:R:3 energy=0.25010194230658084 pbc="F F F"
Kr       0.00000000       0.00000000       0.00000000       0.00000000       0.00000000      -0.41322315
Kr       0.00000000       0.00000000       2.66262626       0.00000000       0.00000000       0.41322315
2
Properties=species:S:1:pos:R:3:forces:R:3 energy=0.22433400368034243 pbc="F F F"
Kr       0.00000000       0.00000000       0.00000000       0.00000000       0.00000000      -0.44942862
Kr       0.00000000       0.00000000       2.72222222       0.00000000       0.00000000       0.44942862
2
Properties=species:S:1:pos:R:3:forces:R:3 energy=0.19684078903839394 pbc="F F F"
Kr       0.00000000       0.00000000       0.00000000       0.00000000       0.00000000      -0.47029957
Kr       0.00000000       0.00000000       2.78181818       0.00000000       0.00000000       0.47029957
2
Properties=species:S:1:pos:R:3:forces:R:3 energy=0.16864791847547894 pbc="F F F"
Kr       0.00000000       0.00000000       0.00000000       0.00000000       0.00000000      -0.47267118
Kr       0.00000000       0.00000000       2.84141414       0.00000000       0.00000000       0.47267118
2
Properties=species:S:1:pos:R:3:forces:R:3 energy=0.14086788785597115 pbc="F F F"
Kr       0.00000000       0.00000000       0.00000000       0.00000000       0.00000000      -0.45674431
Kr       0.00000000       0.00000000       2.90101010       0.00000000       0.00000000       0.45674431
2
Properties=species:S:1:pos:R:3:forces:R:3 energy=0.1145144571361953 pbc="F F F"
Kr       0.00000000       0.00000000       0.00000000       0.00000000       0.00000000      -0.42542869
Kr       0.00000000       0.00000000       2.96060606       0.00000000       0.00000000       0.42542869
2
Properties=species:S:1:pos:R:3:forces:R:3 energy=0.09037646897733424 pbc="F F F"
Kr       0.00000000       0.00000000       0.00000000       0.00000000       0.00000000      -0.38323751
Kr       0.00000000       0.00000000       3.02020202       0.00000000       0.00000000       0.38323751
2
Properties=species:S:1:pos:R:3:forces:R:3 energy=0.06895256582028902 pbc="F F F"
Kr       0.00000000       0.00000000       0.00000000       0.00000000       0.00000000      -0.33514893
Kr       0.00000000       0.00000000       3.07979798       0.00000000       0.00000000       0.33514893
2
Properties=species:S:1:pos:R:3:forces:R:3 energy=0.05045525497383507 pbc="F F F"
Kr       0.00000000       0.00000000       0.00000000       0.00000000       0.00000000      -0.28572258
Kr       0.00000000       0.00000000       3.13939394       0.00000000       0.00000000       0.28572258
2
Properties=species:S:1:pos:R:3:forces:R:3 energy=0.034850904154214615 pbc="F F F"
Kr       0.00000000       0.00000000       0.00000000       0.00000000       0.00000000      -0.23856620
Kr       0.00000000       0.00000000       3.19898990       0.00000000       0.00000000       0.23856620
2
Properties=species:S:1:pos:R:3:forces:R:3 energy=0.021925289994316175 pbc="F F F"
Kr       0.00000000       0.00000000       0.00000000       0.00000000       0.00000000      -0.19614205
Kr       0.00000000       0.00000000       3.25858586       0.00000000       0.00000000       0.19614205
2
Properties=species:S:1:pos:R:3:forces:R:3 energy=0.011350841002471593 pbc="F F F"
Kr       0.00000000       0.00000000       0.00000000       0.00000000       0.00000000      -0.15980215
Kr       0.00000000       0.00000000       3.31818182       0.00000000       0.00000000       0.15980215
2
Properties=species:S:1:pos:R:3:forces:R:3 energy=0.0027482951076659885 pbc="F F F"
Kr       0.00000000       0.00000000       0.00000000       0.00000000       0.00000000      -0.12997560
Kr       0.00000000       0.00000000       3.37777778       0.00000000       0.00000000       0.12997560
2
Properties=species:S:1:pos:R:3:forces:R:3 energy=-0.00426585961796748 pbc="F F F"
Kr       0.00000000       0.00000000       0.00000000       0.00000000       0.00000000      -0.10640934
Kr       0.00000000       0.00000000       3.43737374       0.00000000       0.00000000       0.10640934
2
Properties=species:S:1:pos:R:3:forces:R:3 energy=-0.010045676010666516 pbc="F F F"
Kr       0.00000000       0.00000000       0.00000000       0.00000000       0.00000000      -0.08841379
Kr       0.00000000       0.00000000       3.49696970       0.00000000       0.00000000       0.08841379
2
Properties=species:S:1:pos:R:3:forces:R:3 energy=-0.014896598619475919 pbc="F F F"
Kr       0.00000000       0.00000000       0.00000000       0.00000000       0.00000000      -0.07507236
Kr       0.00000000       0.00000000       3.55656566       0.00000000       0.00000000       0.07507236
2
Properties=species:S:1:pos:R:3:forces:R:3 energy=-0.019066670322230868 pbc="F F F"
Kr       0.00000000       0.00000000       0.00000000       0.00000000       0.00000000      -0.06540339
Kr       0.00000000       0.00000000       3.61616162       0.00000000       0.00000000       0.06540339
2
Properties=species:S:1:pos:R:3:forces:R:3 energy=-0.022746432831147273 pbc="F F F"
Kr       0.00000000       0.00000000       0.00000000       0.00000000       0.00000000      -0.05847318
Kr       0.00000000       0.00000000       3.67575758       0.00000000       0.00000000       0.05847318
2
Properties=species:S:1:pos:R:3:forces:R:3 energy=-0.026074277209625428 pbc="F F F"
Kr       0.00000000       0.00000000       0.00000000       0.00000000       0.00000000      -0.05346695
Kr       0.00000000       0.00000000       3.73535354       0.00000000       0.00000000       0.05346695
2
Properties=species:S:1:pos:R:3:forces:R:3 energy=-0.029144313596737043 pbc="F F F"
Kr       0.00000000       0.00000000       0.00000000       0.00000000       0.00000000      -0.04972612
Kr       0.00000000       0.00000000       3.79494949       0.00000000       0.00000000       0.04972612
2
Properties=species:S:1:pos:R:3:forces:R:3 energy=-0.03201643345529363 pbc="F F F"
Kr       0.00000000       0.00000000       0.00000000       0.00000000       0.00000000      -0.04675592
Kr       0.00000000       0.00000000       3.85454545       0.00000000       0.00000000       0.04675592
2
Properties=species:S:1:pos:R:3:forces:R:3 energy=-0.03472557292213267 pbc="F F F"
Kr       0.00000000       0.00000000       0.00000000       0.00000000       0.00000000      -0.04421008
Kr       0.00000000       0.00000000       3.91414141       0.00000000       0.00000000       0.04421008
2
Properties=species:S:1:pos:R:3:forces:R:3 energy=-0.037289715983839886 pbc="F F F"
Kr       0.00000000       0.00000000       0.00000000       0.00000000       0.00000000      -0.04185744
Kr       0.00000000       0.00000000       3.97373737       0.00000000       0.00000000       0.04185744
2
Properties=species:S:1:pos:R:3:forces:R:3 energy=-0.03971540563675655 pbc="F F F"
Kr       0.00000000       0.00000000       0.00000000       0.00000000       0.00000000      -0.03954408
Kr       0.00000000       0.00000000       4.03333333       0.00000000       0.00000000       0.03954408
2
Properties=species:S:1:pos:R:3:forces:R:3 energy=-0.04200157362263129 pbc="F F F"
Kr       0.00000000       0.00000000       0.00000000       0.00000000       0.00000000      -0.03715611
Kr       0.00000000       0.00000000       4.09292929       0.00000000       0.00000000       0.03715611
2
Properties=species:S:1:pos:R:3:forces:R:3 energy=-0.04414077887089563 pbc="F F F"
Kr       0.00000000       0.00000000       0.00000000       0.00000000       0.00000000      -0.03459949
Kr       0.00000000       0.00000000       4.15252525       0.00000000       0.00000000       0.03459949
2
Properties=species:S:1:pos:R:3:forces:R:3 energy=-0.04612061982615412 pbc="F F F"
Kr       0.00000000       0.00000000       0.00000000       0.00000000       0.00000000      -0.03179708
Kr       0.00000000       0.00000000       4.21212121       0.00000000       0.00000000       0.03179708
2
Properties=species:S:1:pos:R:3:forces:R:3 energy=-0.047924952078382495 pbc="F F F"
Kr       0.00000000       0.00000000       0.00000000       0.00000000       0.00000000      -0.02870289
Kr       0.00000000       0.00000000       4.27171717       0.00000000       0.00000000       0.02870289
2
Properties=species:S:1:pos:R:3:forces:R:3 energy=-0.049535924468563204 pbc="F F F"
Kr       0.00000000       0.00000000       0.00000000       0.00000000       0.00000000      -0.02531620
Kr       0.00000000       0.00000000       4.33131313       0.00000000       0.00000000       0.02531620
2
Properties=species:S:1:pos:R:3:forces:R:3 energy=-0.050937513729963184 pbc="F F F"
Kr       0.00000000       0.00000000       0.00000000       0.00000000       0.00000000      -0.02168481
Kr       0.00000000       0.00000000       4.39090909       0.00000000       0.00000000       0.02168481
2
Properties=species:S:1:pos:R:3:forces:R:3 energy=-0.0521172673222787 pbc="F F F"
Kr       0.00000000       0.00000000       0.00000000       0.00000000       0.00000000      -0.01788516
Kr       0.00000000       0.00000000       4.45050505       0.00000000       0.00000000       0.01788516
2
Properties=species:S:1:pos:R:3:forces:R:3 energy=-0.05306733395663156 pbc="F F F"
Kr       0.00000000       0.00000000       0.00000000       0.00000000       0.00000000      -0.01398623
Kr       0.00000000       0.00000000       4.51010101       0.00000000       0.00000000       0.01398623
2
Properties=species:S:1:pos:R:3:forces:R:3 energy=-0.05378284737704779 pbc="F F F"
Kr       0.00000000       0.00000000       0.00000000       0.00000000       0.00000000      -0.01001055
Kr       0.00000000       0.00000000       4.56969697       0.00000000       0.00000000       0.01001055
2
Properties=species:S:1:pos:R:3:forces:R:3 energy=-0.05425823254040108 pbc="F F F"
Kr       0.00000000       0.00000000       0.00000000       0.00000000       0.00000000      -0.00591693
Kr       0.00000000       0.00000000       4.62929293       0.00000000       0.00000000       0.00591693
2
Properties=species:S:1:pos:R:3:forces:R:3 energy=-0.0544839470138446 pbc="F F F"
Kr       0.00000000       0.00000000       0.00000000       0.00000000       0.00000000      -0.00161625
Kr       0.00000000       0.00000000       4.68888889       0.00000000       0.00000000       0.00161625
2
Properties=species:S:1:pos:R:3:forces:R:3 energy=-0.0544451552669474 pbc="F F F"
Kr       0.00000000       0.00000000       0.00000000       0.00000000       0.00000000       0.00296881
Kr       0.00000000       0.00000000       4.74848485       0.00000000       0.00000000      -0.00296881
2
Properties=species:S:1:pos:R:3:forces:R:3 energy=-0.05412487882936981 pbc="F F F"
Kr       0.00000000       0.00000000       0.00000000       0.00000000       0.00000000       0.00781020
Kr       0.00000000       0.00000000       4.80808081       0.00000000       0.00000000      -0.00781020
2
Properties=species:S:1:pos:R:3:forces:R:3 energy=-0.05351348952948881 pbc="F F F"
Kr       0.00000000       0.00000000       0.00000000       0.00000000       0.00000000       0.01268010
Kr       0.00000000       0.00000000       4.86767677       0.00000000       0.00000000      -0.01268010
2
Properties=species:S:1:pos:R:3:forces:R:3 energy=-0.05262231638045078 pbc="F F F"
Kr       0.00000000       0.00000000       0.00000000       0.00000000       0.00000000       0.01709964
Kr       0.00000000       0.00000000       4.92727273       0.00000000       0.00000000      -0.01709964
2
Properties=species:S:1:pos:R:3:forces:R:3 energy=-0.05149767222059843 pbc="F F F"
Kr       0.00000000       0.00000000       0.00000000       0.00000000       0.00000000       0.02039392
Kr       0.00000000       0.00000000       4.98686869       0.00000000       0.00000000      -0.02039392
2
Properties=species:S:1:pos:R:3:forces:R:3 energy=-0.05022761341196532 pbc="F F F"
Kr       0.00000000       0.00000000       0.00000000       0.00000000       0.00000000       0.02188563
Kr       0.00000000       0.00000000       5.04646465       0.00000000       0.00000000      -0.02188563
2
Properties=species:S:1:pos:R:3:forces:R:3 energy=-0.048932615673146156 pbc="F F F"
Kr       0.00000000       0.00000000       0.00000000       0.00000000       0.00000000       0.02121180
Kr       0.00000000       0.00000000       5.10606061       0.00000000       0.00000000      -0.02121180
2
Properties=species:S:1:pos:R:3:forces:R:3 energy=-0.047737102753992865 pbc="F F F"
Kr       0.00000000       0.00000000       0.00000000       0.00000000       0.00000000       0.01865886
Kr       0.00000000       0.00000000       5.16565657       0.00000000       0.00000000      -0.01865886
2
Properties=species:S:1:pos:R:3:forces:R:3 energy=-0.046724456969632594 pbc="F F F"
Kr       0.00000000       0.00000000       0.00000000       0.00000000       0.00000000       0.01532408
Kr       0.00000000       0.00000000       5.22525253       0.00000000       0.00000000      -0.01532408
2
Properties=species:S:1:pos:R:3:forces:R:3 energy=-0.04589488172294326 pbc="F F F"
Kr       0.00000000       0.00000000       0.00000000       0.00000000       0.00000000       0.01275731
Kr       0.00000000       0.00000000       5.28484848       0.00000000       0.00000000      -0.01275731
2
Properties=species:S:1:pos:R:3:forces:R:3 energy=-0.045173952525709896 pbc="F F F"
Kr       0.00000000       0.00000000       0.00000000       0.00000000       0.00000000       0.01158812
Kr       0.00000000       0.00000000       5.34444444       0.00000000       0.00000000      -0.01158812
2
Properties=species:S:1:pos:R:3:forces:R:3 energy=-0.04452969399970395 pbc="F F F"
Kr       0.00000000       0.00000000       0.00000000       0.00000000       0.00000000       0.00953428
Kr       0.00000000       0.00000000       5.40404040       0.00000000       0.00000000      -0.00953428
2
Properties=species:S:1:pos:R:3:forces:R:3 energy=-0.044124566000185064 pbc="F F F"
Kr       0.00000000       0.00000000       0.00000000       0.00000000       0.00000000       0.00338884
Kr       0.00000000       0.00000000       5.46363636       0.00000000       0.00000000      -0.00338884
2
Properties=species:S:1:pos:R:3:forces:R:3 energy=-0.04414100985513518 pbc="F F F"
Kr       0.00000000       0.00000000       0.00000000       0.00000000       0.00000000      -0.00343328
Kr       0.00000000       0.00000000       5.52323232       0.00000000       0.00000000       0.00343328
2
Properties=species:S:1:pos:R:3:forces:R:3 energy=-0.04443594718148019 pbc="F F F"
Kr       0.00000000       0.00000000       0.00000000       0.00000000       0.00000000      -0.00569759
Kr       0.00000000       0.00000000       5.58282828       0.00000000       0.00000000       0.00569759
2
Properties=species:S:1:pos:R:3:forces:R:3 energy=-0.04477875428969349 pbc="F F F"
Kr       0.00000000       0.00000000       0.00000000       0.00000000       0.00000000      -0.00594887
Kr       0.00000000       0.00000000       5.64242424       0.00000000       0.00000000       0.00594887
2
Properties=species:S:1:pos:R:3:forces:R:3 energy=-0.045207239102884524 pbc="F F F"
Kr       0.00000000       0.00000000       0.00000000       0.00000000       0.00000000      -0.00908649
Kr       0.00000000       0.00000000       5.70202020       0.00000000       0.00000000       0.00908649
2
Properties=species:S:1:pos:R:3:forces:R:3 energy=-0.04589600679967089 pbc="F F F"
Kr       0.00000000       0.00000000       0.00000000       0.00000000       0.00000000      -0.01368469
Kr       0.00000000       0.00000000       5.76161616       0.00000000       0.00000000       0.01368469
2
Properties=species:S:1:pos:R:3:forces:R:3 energy=-0.046718673649742117 pbc="F F F"
Kr       0.00000000       0.00000000       0.00000000       0.00000000       0.00000000      -0.01262035
Kr       0.00000000       0.00000000       5.82121212       0.00000000       0.00000000       0.01262035
2
Properties=species:S:1:pos:R:3:forces:R:3 energy=-0.04728714674575258 pbc="F F F"
Kr       0.00000000       0.00000000       0.00000000       0.00000000       0.00000000      -0.00615269
Kr       0.00000000       0.00000000       5.88080808       0.00000000       0.00000000       0.00615269
2
Properties=species:S:1:pos:R:3:forces:R:3 energy=-0.04746458736993101 pbc="F F F"
Kr       0.00000000       0.00000000       0.00000000       0.00000000       0.00000000      -0.00012946
Kr       0.00000000       0.00000000       5.94040404       0.00000000       0.00000000       0.00012946
2
Properties=species:S:1:pos:R:3:forces:R:3 energy=-0.04738188858353576 pbc="F F F"
Kr       0.00000000       0.00000000       0.00000000       0.00000000       0.00000000       0.00209550
Kr       0.00000000       0.00000000       6.00000000       0.00000000       0.00000000      -0.00209550
