2
Properties=species:S:1:pos:R:3:forces:R:3 energy=1943.0585157568203 pbc="F F F"
N        0.00000000       0.00000000       0.00000000       0.00000000       0.00000000  -31823.33203125
N        0.00000000       0.00000000       0.10000000       0.00000000       0.00000000   31823.33203125
2
Properties=species:S:1:pos:R:3:forces:R:3 energy=909.1488477880703 pbc="F F F"
N        0.00000000       0.00000000       0.00000000       0.00000000       0.00000000   -8932.46582031
N        0.00000000       0.00000000       0.15959596       0.00000000       0.00000000    8932.46582031
2
Properties=species:S:1:pos:R:3:forces:R:3 energy=567.705427377914 pbc="F F F"
N        0.00000000       0.00000000       0.00000000       0.00000000       0.00000000   -3629.54809570
N        0.00000000       0.00000000       0.21919192       0.00000000       0.00000000    3629.54809570
2
Properties=species:S:1:pos:R:3:forces:R:3 energy=405.8307020377011 pbc="F F F"
N        0.00000000       0.00000000       0.00000000       0.00000000       0.00000000   -2111.03466797
N        0.00000000       0.00000000       0.27878788       0.00000000       0.00000000    2111.03466797
2
Properties=species:S:1:pos:R:3:forces:R:3 energy=293.6847975030211 pbc="F F F"
N        0.00000000       0.00000000       0.00000000       0.00000000       0.00000000   -1768.93212891
N        0.00000000       0.00000000       0.33838384       0.00000000       0.00000000    1768.93212891
2
Properties=species:S:1:pos:R:3:forces:R:3 energy=223.45080398541896 pbc="F F F"
N        0.00000000       0.00000000       0.00000000       0.00000000       0.00000000    -738.51391602
N        0.00000000       0.00000000       0.39797980       0.00000000       0.00000000     738.51391602
2
Properties=species:S:1:pos:R:3:forces:R:3 energy=173.2591078461452 pbc="F F F"
N        0.00000000       0.00000000       0.00000000       0.00000000       0.00000000    -863.15985107
N        0.00000000       0.00000000       0.45757576       0.00000000       0.00000000     863.15985107
2
Properties=species:S:1:pos:R:3:forces:R:3 energy=123.37853844119843 pbc="F F F"
N        0.00000000       0.00000000       0.00000000       0.00000000       0.00000000    -787.92053223
N        0.00000000       0.00000000       0.51717172       0.00000000       0.00000000     787.92053223
2
Properties=species:S:1:pos:R:3:forces:R:3 energy=79.69357912302809 pbc="F F F"
N        0.00000000       0.00000000       0.00000000       0.00000000       0.00000000    -675.03112793
N        0.00000000       0.00000000       0.57676768       0.00000000       0.00000000     675.03112793
2
Properties=species:S:1:pos:R:3:forces:R:3 energy=46.582380854542315 pbc="F F F"
N        0.00000000       0.00000000       0.00000000       0.00000000       0.00000000    -441.85644531
N        0.00000000       0.00000000       0.63636364       0.00000000       0.00000000     441.85644531
2
Properties=species:S:1:pos:R:3:forces:R:3 energy=24.878630497616527 pbc="F F F"
N        0.00000000       0.00000000       0.00000000       0.00000000       0.00000000    -299.63809204
N        0.00000000       0.00000000       0.69595960       0.00000000       0.00000000     299.63809204
2
Properties=species:S:1:pos:R:3:forces:R:3 energy=9.625098476006771 pbc="F F F"
N        0.00000000       0.00000000       0.00000000       0.00000000       0.00000000    -215.65643311
N        0.00000000       0.00000000       0.75555556       0.00000000       0.00000000     215.65643311
2
Properties=species:S:1:pos:R:3:forces:R:3 energy=-1.1800686193000864 pbc="F F F"
N        0.00000000       0.00000000       0.00000000       0.00000000       0.00000000    -150.16229248
N        0.00000000       0.00000000       0.81515152       0.00000000       0.00000000     150.16229248
2
Properties=species:S:1:pos:R:3:forces:R:3 energy=-8.36885190387817 pbc="F F F"
N        0.00000000       0.00000000       0.00000000       0.00000000       0.00000000     -92.49072266
N        0.00000000       0.00000000       0.87474747       0.00000000       0.00000000      92.49072266
2
Properties=species:S:1:pos:R:3:forces:R:3 energy=-12.596136106620389 pbc="F F F"
N        0.00000000       0.00000000       0.00000000       0.00000000       0.00000000     -52.94351959
N        0.00000000       0.00000000       0.93434343       0.00000000       0.00000000      52.94351959
2
Properties=species:S:1:pos:R:3:forces:R:3 energy=-14.971285153358108 pbc="F F F"
N        0.00000000       0.00000000       0.00000000       0.00000000       0.00000000     -28.27788734
N        0.00000000       0.00000000       0.99393939       0.00000000       0.00000000      28.27788734
2
Properties=species:S:1:pos:R:3:forces:R:3 energy=-16.111848811242808 pbc="F F F"
N        0.00000000       0.00000000       0.00000000       0.00000000       0.00000000     -11.10843182
N        0.00000000       0.00000000       1.05353535       0.00000000       0.00000000      11.10843182
2
Properties=species:S:1:pos:R:3:forces:R:3 energy=-16.413901216135375 pbc="F F F"
N        0.00000000       0.00000000       0.00000000       0.00000000       0.00000000       0.12112802
N        0.00000000       0.00000000       1.11313131       0.00000000       0.00000000      -0.12112802
2
Properties=species:S:1:pos:R:3:forces:R:3 energy=-16.18216212348408 pbc="F F F"
N        0.00000000       0.00000000       0.00000000       0.00000000       0.00000000       7.06766319
N        0.00000000       0.00000000       1.17272727       0.00000000       0.00000000      -7.06766319
2
Properties=species:S:1:pos:R:3:forces:R:3 energy=-15.629642118512168 pbc="F F F"
N        0.00000000       0.00000000       0.00000000       0.00000000       0.00000000      11.07369804
N        0.00000000       0.00000000       1.23232323       0.00000000       0.00000000     -11.07369804
2
Properties=species:S:1:pos:R:3:forces:R:3 energy=-14.901986149584056 pbc="F F F"
N        0.00000000       0.00000000       0.00000000       0.00000000       0.00000000      13.06969929
N        0.00000000       0.00000000       1.29191919       0.00000000       0.00000000     -13.06969929
2
Properties=species:S:1:pos:R:3:forces:R:3 energy=-14.099045681632159 pbc="F F F"
N        0.00000000       0.00000000       0.00000000       0.00000000       0.00000000      13.69364548
N        0.00000000       0.00000000       1.35151515       0.00000000       0.00000000     -13.69364548
2
Properties=species:S:1:pos:R:3:forces:R:3 energy=-13.286328593946953 pbc="F F F"
N        0.00000000       0.00000000       0.00000000       0.00000000       0.00000000      13.48544407
N        0.00000000       0.00000000       1.41111111       0.00000000       0.00000000     -13.48544407
2
Properties=species:S:1:pos:R:3:forces:R:3 energy=-12.497986250486852 pbc="F F F"
N        0.00000000       0.00000000       0.00000000       0.00000000       0.00000000      12.95697975
N        0.00000000       0.00000000       1.47070707       0.00000000       0.00000000     -12.95697975
2
Properties=species:S:1:pos:R:3:forces:R:3 energy=-11.741448589890863 pbc="F F F"
N        0.00000000       0.00000000       0.00000000       0.00000000       0.00000000      12.43655014
N        0.00000000       0.00000000       1.53030303       0.00000000       0.00000000     -12.43655014
2
Properties=species:S:1:pos:R:3:forces:R:3 energy=-11.01852271062728 pbc="F F F"
N        0.00000000       0.00000000       0.00000000       0.00000000       0.00000000      11.75947952
N        0.00000000       0.00000000       1.58989899       0.00000000       0.00000000     -11.75947952
2
Properties=species:S:1:pos:R:3:forces:R:3 energy=-10.351159562672574 pbc="F F F"
N        0.00000000       0.00000000       0.00000000       0.00000000       0.00000000      10.53901958
N        0.00000000       0.00000000       1.64949495       0.00000000       0.00000000     -10.53901958
2
Properties=species:S:1:pos:R:3:forces:R:3 energy=-9.768291065324187 pbc="F F F"
N        0.00000000       0.00000000       0.00000000       0.00000000       0.00000000       9.04178524
N        0.00000000       0.00000000       1.70909091       0.00000000       0.00000000      -9.04178524
2
Properties=species:S:1:pos:R:3:forces:R:3 energy=-9.262969004534867 pbc="F F F"
N        0.00000000       0.00000000       0.00000000       0.00000000       0.00000000       8.04965687
N        0.00000000       0.00000000       1.76868687       0.00000000       0.00000000      -8.04965687
2
Properties=species:S:1:pos:R:3:forces:R:3 energy=-8.793073490786883 pbc="F F F"
N        0.00000000       0.00000000       0.00000000       0.00000000       0.00000000       7.82292271
N        0.00000000       0.00000000       1.82828283       0.00000000       0.00000000      -7.82292271
2
Properties=species:S:1:pos:R:3:forces:R:3 energy=-8.324874762362366 pbc="F F F"
N        0.00000000       0.00000000       0.00000000       0.00000000       0.00000000       7.87579155
N        0.00000000       0.00000000       1.88787879       0.00000000       0.00000000      -7.87579155
2
Properties=species:S:1:pos:R:3:forces:R:3 energy=-7.8622991458292395 pbc="F F F"
N        0.00000000       0.00000000       0.00000000       0.00000000       0.00000000       7.54287720
N        0.00000000       0.00000000       1.94747475       0.00000000       0.00000000      -7.54287720
2
Properties=species:S:1:pos:R:3:forces:R:3 energy=-7.439408428893707 pbc="F F F"
N        0.00000000       0.00000000       0.00000000       0.00000000       0.00000000       6.54633379
N        0.00000000       0.00000000       2.00707071       0.00000000       0.00000000      -6.54633379
2
Properties=species:S:1:pos:R:3:forces:R:3 energy=-7.090203225803105 pbc="F F F"
N        0.00000000       0.00000000       0.00000000       0.00000000       0.00000000       5.14511156
N        0.00000000       0.00000000       2.06666667       0.00000000       0.00000000      -5.14511156
2
Properties=species:S:1:pos:R:3:forces:R:3 energy=-6.824959577274237 pbc="F F F"
N        0.00000000       0.00000000       0.00000000       0.00000000       0.00000000       3.79570341
N        0.00000000       0.00000000       2.12626263       0.00000000       0.00000000      -3.79570341
2
Properties=species:S:1:pos:R:3:forces:R:3 energy=-6.631459616375877 pbc="F F F"
N        0.00000000       0.00000000       0.00000000       0.00000000       0.00000000       2.75531721
N        0.00000000       0.00000000       2.18585859       0.00000000       0.00000000      -2.75531721
2
Properties=species:S:1:pos:R:3:forces:R:3 energy=-6.490362488280423 pbc="F F F"
N        0.00000000       0.00000000       0.00000000       0.00000000       0.00000000       2.02329469
N        0.00000000       0.00000000       2.24545455       0.00000000       0.00000000      -2.02329469
2
Properties=species:S:1:pos:R:3:forces:R:3 energy=-6.3861889918214265 pbc="F F F"
N        0.00000000       0.00000000       0.00000000       0.00000000       0.00000000       1.49905467
N        0.00000000       0.00000000       2.30505051       0.00000000       0.00000000      -1.49905467
2
Properties=species:S:1:pos:R:3:forces:R:3 energy=-6.309231521381157 pbc="F F F"
N        0.00000000       0.00000000       0.00000000       0.00000000       0.00000000       1.09992731
N        0.00000000       0.00000000       2.36464646       0.00000000       0.00000000      -1.09992731
2
Properties=species:S:1:pos:R:3:forces:R:3 energy=-6.253442731420784 pbc="F F F"
N        0.00000000       0.00000000       0.00000000       0.00000000       0.00000000       0.78436464
N        0.00000000       0.00000000       2.42424242       0.00000000       0.00000000      -0.78436464
2
Properties=species:S:1:pos:R:3:forces:R:3 energy=-6.214418401891678 pbc="F F F"
N        0.00000000       0.00000000       0.00000000       0.00000000       0.00000000       0.53565753
N        0.00000000       0.00000000       2.48383838       0.00000000       0.00000000      -0.53565753
2
Properties=species:S:1:pos:R:3:forces:R:3 energy=-6.188430316572039 pbc="F F F"
N        0.00000000       0.00000000       0.00000000       0.00000000       0.00000000       0.34569150
N        0.00000000       0.00000000       2.54343434       0.00000000       0.00000000      -0.34569150
2
Properties=species:S:1:pos:R:3:forces:R:3 energy=-6.172190920130685 pbc="F F F"
N        0.00000000       0.00000000       0.00000000       0.00000000       0.00000000       0.20721540
N        0.00000000       0.00000000       2.60303030       0.00000000       0.00000000      -0.20721540
2
Properties=species:S:1:pos:R:3:forces:R:3 energy=-6.162880133465604 pbc="F F F"
N        0.00000000       0.00000000       0.00000000       0.00000000       0.00000000       0.11159454
N        0.00000000       0.00000000       2.66262626       0.00000000       0.00000000      -0.11159454
2
Properties=species:S:1:pos:R:3:forces:R:3 energy=-6.1582312738834055 pbc="F F F"
N        0.00000000       0.00000000       0.00000000       0.00000000       0.00000000       0.04910227
N        0.00000000       0.00000000       2.72222222       0.00000000       0.00000000      -0.04910227
2
Properties=species:S:1:pos:R:3:forces:R:3 energy=-6.15656353625492 pbc="F F F"
N        0.00000000       0.00000000       0.00000000       0.00000000       0.00000000       0.01002455
N        0.00000000       0.00000000       2.78181818       0.00000000       0.00000000      -0.01002455
2
Properties=species:S:1:pos:R:3:forces:R:3 energy=-6.156741980667553 pbc="F F F"
N        0.00000000       0.00000000       0.00000000       0.00000000       0.00000000      -0.01415218
N        0.00000000       0.00000000       2.84141414       0.00000000       0.00000000       0.01415218
2
Properties=species:S:1:pos:R:3:forces:R:3 energy=-6.158085051359173 pbc="F F F"
N        0.00000000       0.00000000       0.00000000       0.00000000       0.00000000      -0.02992642
N        0.00000000       0.00000000       2.90101010       0.00000000       0.00000000       0.02992642
2
Properties=species:S:1:pos:R:3:forces:R:3 energy=-6.160226758900054 pbc="F F F"
N        0.00000000       0.00000000       0.00000000       0.00000000       0.00000000      -0.04148379
N        0.00000000       0.00000000       2.96060606       0.00000000       0.00000000       0.04148379
2
Properties=species:S:1:pos:R:3:forces:R:3 energy=-6.162987454947141 pbc="F F F"
N        0.00000000       0.00000000       0.00000000       0.00000000       0.00000000      -0.05091131
N        0.00000000       0.00000000       3.02020202       0.00000000       0.00000000       0.05091131
2
Properties=species:S:1:pos:R:3:forces:R:3 energy=-6.166264592185307 pbc="F F F"
N        0.00000000       0.00000000       0.00000000       0.00000000       0.00000000      -0.05878387
N        0.00000000       0.00000000       3.07979798       0.00000000       0.00000000       0.05878387
2
Properties=species:S:1:pos:R:3:forces:R:3 energy=-6.169959711221351 pbc="F F F"
N        0.00000000       0.00000000       0.00000000       0.00000000       0.00000000      -0.06487907
N        0.00000000       0.00000000       3.13939394       0.00000000       0.00000000       0.06487907
2
Properties=species:S:1:pos:R:3:forces:R:3 energy=-6.173954522698357 pbc="F F F"
N        0.00000000       0.00000000       0.00000000       0.00000000       0.00000000      -0.06881526
N        0.00000000       0.00000000       3.19898990       0.00000000       0.00000000       0.06881526
2
Properties=species:S:1:pos:R:3:forces:R:3 energy=-6.178115112506963 pbc="F F F"
N        0.00000000       0.00000000       0.00000000       0.00000000       0.00000000      -0.07041106
N        0.00000000       0.00000000       3.25858586       0.00000000       0.00000000       0.07041106
2
Properties=species:S:1:pos:R:3:forces:R:3 energy=-6.182302818757068 pbc="F F F"
N        0.00000000       0.00000000       0.00000000       0.00000000       0.00000000      -0.06976888
N        0.00000000       0.00000000       3.31818182       0.00000000       0.00000000       0.06976888
2
Properties=species:S:1:pos:R:3:forces:R:3 energy=-6.186391784469757 pbc="F F F"
N        0.00000000       0.00000000       0.00000000       0.00000000       0.00000000      -0.06715938
N        0.00000000       0.00000000       3.37777778       0.00000000       0.00000000       0.06715938
2
Properties=species:S:1:pos:R:3:forces:R:3 energy=-6.19027506498949 pbc="F F F"
N        0.00000000       0.00000000       0.00000000       0.00000000       0.00000000      -0.06289063
N        0.00000000       0.00000000       3.43737374       0.00000000       0.00000000       0.06289063
2
Properties=species:S:1:pos:R:3:forces:R:3 energy=-6.193860742802795 pbc="F F F"
N        0.00000000       0.00000000       0.00000000       0.00000000       0.00000000      -0.05724133
N        0.00000000       0.00000000       3.49696970       0.00000000       0.00000000       0.05724133
2
Properties=species:S:1:pos:R:3:forces:R:3 energy=-6.197075693134292 pbc="F F F"
N        0.00000000       0.00000000       0.00000000       0.00000000       0.00000000      -0.05050853
N        0.00000000       0.00000000       3.55656566       0.00000000       0.00000000       0.05050853
2
Properties=species:S:1:pos:R:3:forces:R:3 energy=-6.199866492479539 pbc="F F F"
N        0.00000000       0.00000000       0.00000000       0.00000000       0.00000000      -0.04309003
N        0.00000000       0.00000000       3.61616162       0.00000000       0.00000000       0.04309003
2
Properties=species:S:1:pos:R:3:forces:R:3 energy=-6.20220893792518 pbc="F F F"
N        0.00000000       0.00000000       0.00000000       0.00000000       0.00000000      -0.03552438
N        0.00000000       0.00000000       3.67575758       0.00000000       0.00000000       0.03552438
2
Properties=species:S:1:pos:R:3:forces:R:3 energy=-6.204110901836247 pbc="F F F"
N        0.00000000       0.00000000       0.00000000       0.00000000       0.00000000      -0.02845471
N        0.00000000       0.00000000       3.73535354       0.00000000       0.00000000       0.02845471
2
Properties=species:S:1:pos:R:3:forces:R:3 energy=-6.205622368007212 pbc="F F F"
N        0.00000000       0.00000000       0.00000000       0.00000000       0.00000000      -0.02249196
N        0.00000000       0.00000000       3.79494949       0.00000000       0.00000000       0.02249196
2
Properties=species:S:1:pos:R:3:forces:R:3 energy=-6.206822571313923 pbc="F F F"
N        0.00000000       0.00000000       0.00000000       0.00000000       0.00000000      -0.01806670
N        0.00000000       0.00000000       3.85454545       0.00000000       0.00000000       0.01806670
2
Properties=species:S:1:pos:R:3:forces:R:3 energy=-6.207810493836588 pbc="F F F"
N        0.00000000       0.00000000       0.00000000       0.00000000       0.00000000      -0.01533733
N        0.00000000       0.00000000       3.91414141       0.00000000       0.00000000       0.01533733
2
Properties=species:S:1:pos:R:3:forces:R:3 energy=-6.208682491923185 pbc="F F F"
N        0.00000000       0.00000000       0.00000000       0.00000000       0.00000000      -0.01418398
N        0.00000000       0.00000000       3.97373737       0.00000000       0.00000000       0.01418398
2
Properties=species:S:1:pos:R:3:forces:R:3 energy=-6.209526133736361 pbc="F F F"
N        0.00000000       0.00000000       0.00000000       0.00000000       0.00000000      -0.01432040
N        0.00000000       0.00000000       4.03333333       0.00000000       0.00000000       0.01432040
2
Properties=species:S:1:pos:R:3:forces:R:3 energy=-6.210408314754431 pbc="F F F"
N        0.00000000       0.00000000       0.00000000       0.00000000       0.00000000      -0.01544058
N        0.00000000       0.00000000       4.09292929       0.00000000       0.00000000       0.01544058
2
Properties=species:S:1:pos:R:3:forces:R:3 energy=-6.21138101783114 pbc="F F F"
N        0.00000000       0.00000000       0.00000000       0.00000000       0.00000000      -0.01731712
N        0.00000000       0.00000000       4.15252525       0.00000000       0.00000000       0.01731712
2
Properties=species:S:1:pos:R:3:forces:R:3 energy=-6.212484679170198 pbc="F F F"
N        0.00000000       0.00000000       0.00000000       0.00000000       0.00000000      -0.01978707
N        0.00000000       0.00000000       4.21212121       0.00000000       0.00000000       0.01978707
2
Properties=species:S:1:pos:R:3:forces:R:3 energy=-6.213747264349289 pbc="F F F"
N        0.00000000       0.00000000       0.00000000       0.00000000       0.00000000      -0.02264964
N        0.00000000       0.00000000       4.27171717       0.00000000       0.00000000       0.02264964
2
Properties=species:S:1:pos:R:3:forces:R:3 energy=-6.215184769509865 pbc="F F F"
N        0.00000000       0.00000000       0.00000000       0.00000000       0.00000000      -0.02553798
N        0.00000000       0.00000000       4.33131313       0.00000000       0.00000000       0.02553798
2
Properties=species:S:1:pos:R:3:forces:R:3 energy=-6.216781217955172 pbc="F F F"
N        0.00000000       0.00000000       0.00000000       0.00000000       0.00000000      -0.02788786
N        0.00000000       0.00000000       4.39090909       0.00000000       0.00000000       0.02788786
2
Properties=species:S:1:pos:R:3:forces:R:3 energy=-6.21848485713432 pbc="F F F"
N        0.00000000       0.00000000       0.00000000       0.00000000       0.00000000      -0.02906456
N        0.00000000       0.00000000       4.45050505       0.00000000       0.00000000       0.02906456
2
Properties=species:S:1:pos:R:3:forces:R:3 energy=-6.220212945426837 pbc="F F F"
N        0.00000000       0.00000000       0.00000000       0.00000000       0.00000000      -0.02860888
N        0.00000000       0.00000000       4.51010101       0.00000000       0.00000000       0.02860888
2
Properties=species:S:1:pos:R:3:forces:R:3 energy=-6.221862243154116 pbc="F F F"
N        0.00000000       0.00000000       0.00000000       0.00000000       0.00000000      -0.02650003
N        0.00000000       0.00000000       4.56969697       0.00000000       0.00000000       0.02650003
2
Properties=species:S:1:pos:R:3:forces:R:3 energy=-6.2233486123372925 pbc="F F F"
N        0.00000000       0.00000000       0.00000000       0.00000000       0.00000000      -0.02328354
N        0.00000000       0.00000000       4.62929293       0.00000000       0.00000000       0.02328354
2
Properties=species:S:1:pos:R:3:forces:R:3 energy=-6.224635620492101 pbc="F F F"
N        0.00000000       0.00000000       0.00000000       0.00000000       0.00000000      -0.01998569
N        0.00000000       0.00000000       4.68888889       0.00000000       0.00000000       0.01998569
2
Properties=species:S:1:pos:R:3:forces:R:3 energy=-6.225753149553353 pbc="F F F"
N        0.00000000       0.00000000       0.00000000       0.00000000       0.00000000      -0.01781478
N        0.00000000       0.00000000       4.74848485       0.00000000       0.00000000       0.01781478
2
Properties=species:S:1:pos:R:3:forces:R:3 energy=-6.226800727102419 pbc="F F F"
N        0.00000000       0.00000000       0.00000000       0.00000000       0.00000000      -0.01771421
N        0.00000000       0.00000000       4.80808081       0.00000000       0.00000000       0.01771421
2
Properties=species:S:1:pos:R:3:forces:R:3 energy=-6.2279127289360225 pbc="F F F"
N        0.00000000       0.00000000       0.00000000       0.00000000       0.00000000      -0.01998664
N        0.00000000       0.00000000       4.86767677       0.00000000       0.00000000       0.01998664
2
Properties=species:S:1:pos:R:3:forces:R:3 energy=-6.229219749712738 pbc="F F F"
N        0.00000000       0.00000000       0.00000000       0.00000000       0.00000000      -0.02413225
N        0.00000000       0.00000000       4.92727273       0.00000000       0.00000000       0.02413225
2
Properties=species:S:1:pos:R:3:forces:R:3 energy=-6.230803779567157 pbc="F F F"
N        0.00000000       0.00000000       0.00000000       0.00000000       0.00000000      -0.02900988
N        0.00000000       0.00000000       4.98686869       0.00000000       0.00000000       0.02900988
2
Properties=species:S:1:pos:R:3:forces:R:3 energy=-6.232666259782079 pbc="F F F"
N        0.00000000       0.00000000       0.00000000       0.00000000       0.00000000      -0.03329997
N        0.00000000       0.00000000       5.04646465       0.00000000       0.00000000       0.03329997
2
Properties=species:S:1:pos:R:3:forces:R:3 energy=-6.234742380577669 pbc="F F F"
N        0.00000000       0.00000000       0.00000000       0.00000000       0.00000000      -0.03609740
N        0.00000000       0.00000000       5.10606061       0.00000000       0.00000000       0.03609740
2
Properties=species:S:1:pos:R:3:forces:R:3 energy=-6.23693684795709 pbc="F F F"
N        0.00000000       0.00000000       0.00000000       0.00000000       0.00000000      -0.03732326
N        0.00000000       0.00000000       5.16565657       0.00000000       0.00000000       0.03732326
2
Properties=species:S:1:pos:R:3:forces:R:3 energy=-6.239175378654793 pbc="F F F"
N        0.00000000       0.00000000       0.00000000       0.00000000       0.00000000      -0.03779137
N        0.00000000       0.00000000       5.22525253       0.00000000       0.00000000       0.03779137
2
Properties=species:S:1:pos:R:3:forces:R:3 energy=-6.241449996350224 pbc="F F F"
N        0.00000000       0.00000000       0.00000000       0.00000000       0.00000000      -0.03868944
N        0.00000000       0.00000000       5.28484848       0.00000000       0.00000000       0.03868944
2
Properties=species:S:1:pos:R:3:forces:R:3 energy=-6.2438028200459 pbc="F F F"
N        0.00000000       0.00000000       0.00000000       0.00000000       0.00000000      -0.04027114
N        0.00000000       0.00000000       5.34444444       0.00000000       0.00000000       0.04027114
2
Properties=species:S:1:pos:R:3:forces:R:3 energy=-6.246215434926373 pbc="F F F"
N        0.00000000       0.00000000       0.00000000       0.00000000       0.00000000      -0.04002801
N        0.00000000       0.00000000       5.40404040       0.00000000       0.00000000       0.04002801
2
Properties=species:S:1:pos:R:3:forces:R:3 energy=-6.248456303279668 pbc="F F F"
N        0.00000000       0.00000000       0.00000000       0.00000000       0.00000000      -0.03410041
N        0.00000000       0.00000000       5.46363636       0.00000000       0.00000000       0.03410041
2
Properties=species:S:1:pos:R:3:forces:R:3 energy=-6.250203785959741 pbc="F F F"
N        0.00000000       0.00000000       0.00000000       0.00000000       0.00000000      -0.02453624
N        0.00000000       0.00000000       5.52323232       0.00000000       0.00000000       0.02453624
2
Properties=species:S:1:pos:R:3:forces:R:3 energy=-6.251429042575023 pbc="F F F"
N        0.00000000       0.00000000       0.00000000       0.00000000       0.00000000      -0.01714820
N        0.00000000       0.00000000       5.58282828       0.00000000       0.00000000       0.01714820
2
Properties=species:S:1:pos:R:3:forces:R:3 energy=-6.252296845597722 pbc="F F F"
N        0.00000000       0.00000000       0.00000000       0.00000000       0.00000000      -0.01209350
N        0.00000000       0.00000000       5.64242424       0.00000000       0.00000000       0.01209350
2
Properties=species:S:1:pos:R:3:forces:R:3 energy=-6.252836563714605 pbc="F F F"
N        0.00000000       0.00000000       0.00000000       0.00000000       0.00000000      -0.00536409
N        0.00000000       0.00000000       5.70202020       0.00000000       0.00000000       0.00536409
2
Properties=species:S:1:pos:R:3:forces:R:3 energy=-6.252868249939102 pbc="F F F"
N        0.00000000       0.00000000       0.00000000       0.00000000       0.00000000       0.00439350
N        0.00000000       0.00000000       5.76161616       0.00000000       0.00000000      -0.00439350
2
Properties=species:S:1:pos:R:3:forces:R:3 energy=-6.252397460253933 pbc="F F F"
N        0.00000000       0.00000000       0.00000000       0.00000000       0.00000000       0.01001839
N        0.00000000       0.00000000       5.82121212       0.00000000       0.00000000      -0.01001839
2
Properties=species:S:1:pos:R:3:forces:R:3 energy=-6.251841752275954 pbc="F F F"
N        0.00000000       0.00000000       0.00000000       0.00000000       0.00000000       0.00766227
N        0.00000000       0.00000000       5.88080808       0.00000000       0.00000000      -0.00766227
2
Properties=species:S:1:pos:R:3:forces:R:3 energy=-6.251534771542794 pbc="F F F"
N        0.00000000       0.00000000       0.00000000       0.00000000       0.00000000       0.00263908
N        0.00000000       0.00000000       5.94040404       0.00000000       0.00000000      -0.00263908
2
Properties=species:S:1:pos:R:3:forces:R:3 energy=-6.251467806490818 pbc="F F F"
N        0.00000000       0.00000000       0.00000000       0.00000000       0.00000000       0.00035882
N        0.00000000       0.00000000       6.00000000       0.00000000       0.00000000      -0.00035882
