2
Properties=species:S:1:pos:R:3:forces:R:3 energy=30967.68590915052 pbc="F F F"
Nb       0.00000000       0.00000000       0.00000000       0.00000000       0.00000000 -727407.43750000
Nb       0.00000000       0.00000000       0.10000000       0.00000000       0.00000000  727407.43750000
2
Properties=species:S:1:pos:R:3:forces:R:3 energy=9367.487666963021 pbc="F F F"
Nb       0.00000000       0.00000000       0.00000000       0.00000000       0.00000000 -162621.75000000
Nb       0.00000000       0.00000000       0.15959596       0.00000000       0.00000000  162621.75000000
2
Properties=species:S:1:pos:R:3:forces:R:3 energy=3711.3863486036453 pbc="F F F"
Nb       0.00000000       0.00000000       0.00000000       0.00000000       0.00000000  -51886.83593750
Nb       0.00000000       0.00000000       0.21919192       0.00000000       0.00000000   51886.83593750
2
Properties=species:S:1:pos:R:3:forces:R:3 energy=1733.5108603223953 pbc="F F F"
Nb       0.00000000       0.00000000       0.00000000       0.00000000       0.00000000  -20229.08203125
Nb       0.00000000       0.00000000       0.27878788       0.00000000       0.00000000   20229.08203125
2
Properties=species:S:1:pos:R:3:forces:R:3 energy=917.3209189161453 pbc="F F F"
Nb       0.00000000       0.00000000       0.00000000       0.00000000       0.00000000   -8910.87988281
Nb       0.00000000       0.00000000       0.33838384       0.00000000       0.00000000    8910.87988281
2
Properties=species:S:1:pos:R:3:forces:R:3 energy=544.0178183365434 pbc="F F F"
Nb       0.00000000       0.00000000       0.00000000       0.00000000       0.00000000   -4255.86083984
Nb       0.00000000       0.00000000       0.39797980       0.00000000       0.00000000    4255.86083984
2
Properties=species:S:1:pos:R:3:forces:R:3 energy=360.67101659140224 pbc="F F F"
Nb       0.00000000       0.00000000       0.00000000       0.00000000       0.00000000   -2160.57568359
Nb       0.00000000       0.00000000       0.45757576       0.00000000       0.00000000    2160.57568359
2
Properties=species:S:1:pos:R:3:forces:R:3 energy=265.2743491362761 pbc="F F F"
Nb       0.00000000       0.00000000       0.00000000       0.00000000       0.00000000   -1159.06066895
Nb       0.00000000       0.00000000       0.51717172       0.00000000       0.00000000    1159.06066895
2
Properties=species:S:1:pos:R:3:forces:R:3 energy=212.69993206636778 pbc="F F F"
Nb       0.00000000       0.00000000       0.00000000       0.00000000       0.00000000    -661.79785156
Nb       0.00000000       0.00000000       0.57676768       0.00000000       0.00000000     661.79785156
2
Properties=species:S:1:pos:R:3:forces:R:3 energy=181.5925560437627 pbc="F F F"
Nb       0.00000000       0.00000000       0.00000000       0.00000000       0.00000000    -410.39764404
Nb       0.00000000       0.00000000       0.63636364       0.00000000       0.00000000     410.39764404
2
Properties=species:S:1:pos:R:3:forces:R:3 energy=161.32864015485058 pbc="F F F"
Nb       0.00000000       0.00000000       0.00000000       0.00000000       0.00000000    -284.61718750
Nb       0.00000000       0.00000000       0.69595960       0.00000000       0.00000000     284.61718750
2
Properties=species:S:1:pos:R:3:forces:R:3 energy=146.30474508124803 pbc="F F F"
Nb       0.00000000       0.00000000       0.00000000       0.00000000       0.00000000    -228.37886047
Nb       0.00000000       0.00000000       0.75555556       0.00000000       0.00000000     228.37886047
2
Properties=species:S:1:pos:R:3:forces:R:3 energy=133.27311389662546 pbc="F F F"
Nb       0.00000000       0.00000000       0.00000000       0.00000000       0.00000000    -214.49415588
Nb       0.00000000       0.00000000       0.81515152       0.00000000       0.00000000     214.49415588
2
Properties=species:S:1:pos:R:3:forces:R:3 energy=120.19376096325153 pbc="F F F"
Nb       0.00000000       0.00000000       0.00000000       0.00000000       0.00000000    -228.58790588
Nb       0.00000000       0.00000000       0.87474747       0.00000000       0.00000000     228.58790588
2
Properties=species:S:1:pos:R:3:forces:R:3 energy=105.79489680003705 pbc="F F F"
Nb       0.00000000       0.00000000       0.00000000       0.00000000       0.00000000    -252.41368103
Nb       0.00000000       0.00000000       0.93434343       0.00000000       0.00000000     252.41368103
2
Properties=species:S:1:pos:R:3:forces:R:3 energy=90.5497727814337 pbc="F F F"
Nb       0.00000000       0.00000000       0.00000000       0.00000000       0.00000000    -255.48323059
Nb       0.00000000       0.00000000       0.99393939       0.00000000       0.00000000     255.48323059
2
Properties=species:S:1:pos:R:3:forces:R:3 energy=75.53607147225075 pbc="F F F"
Nb       0.00000000       0.00000000       0.00000000       0.00000000       0.00000000    -249.38952637
Nb       0.00000000       0.00000000       1.05353535       0.00000000       0.00000000     249.38952637
2
Properties=species:S:1:pos:R:3:forces:R:3 energy=60.675877763201186 pbc="F F F"
Nb       0.00000000       0.00000000       0.00000000       0.00000000       0.00000000    -249.02832031
Nb       0.00000000       0.00000000       1.11313131       0.00000000       0.00000000     249.02832031
2
Properties=species:S:1:pos:R:3:forces:R:3 energy=46.06988831304037 pbc="F F F"
Nb       0.00000000       0.00000000       0.00000000       0.00000000       0.00000000    -238.78221130
Nb       0.00000000       0.00000000       1.17272727       0.00000000       0.00000000     238.78221130
2
Properties=species:S:1:pos:R:3:forces:R:3 energy=32.452070056866845 pbc="F F F"
Nb       0.00000000       0.00000000       0.00000000       0.00000000       0.00000000    -216.31707764
Nb       0.00000000       0.00000000       1.23232323       0.00000000       0.00000000     216.31707764
2
Properties=species:S:1:pos:R:3:forces:R:3 energy=20.649403724885087 pbc="F F F"
Nb       0.00000000       0.00000000       0.00000000       0.00000000       0.00000000    -175.82545471
Nb       0.00000000       0.00000000       1.29191919       0.00000000       0.00000000     175.82545471
2
Properties=species:S:1:pos:R:3:forces:R:3 energy=11.756031422958959 pbc="F F F"
Nb       0.00000000       0.00000000       0.00000000       0.00000000       0.00000000    -122.81040192
Nb       0.00000000       0.00000000       1.35151515       0.00000000       0.00000000     122.81040192
2
Properties=species:S:1:pos:R:3:forces:R:3 energy=5.743673076643438 pbc="F F F"
Nb       0.00000000       0.00000000       0.00000000       0.00000000       0.00000000     -82.80226135
Nb       0.00000000       0.00000000       1.41111111       0.00000000       0.00000000      82.80226135
2
Properties=species:S:1:pos:R:3:forces:R:3 energy=1.463689235066639 pbc="F F F"
Nb       0.00000000       0.00000000       0.00000000       0.00000000       0.00000000     -63.14284134
Nb       0.00000000       0.00000000       1.47070707       0.00000000       0.00000000      63.14284134
2
Properties=species:S:1:pos:R:3:forces:R:3 energy=-1.9059563720980814 pbc="F F F"
Nb       0.00000000       0.00000000       0.00000000       0.00000000       0.00000000     -50.19242859
Nb       0.00000000       0.00000000       1.53030303       0.00000000       0.00000000      50.19242859
2
Properties=species:S:1:pos:R:3:forces:R:3 energy=-4.540803674898903 pbc="F F F"
Nb       0.00000000       0.00000000       0.00000000       0.00000000       0.00000000     -38.58391190
Nb       0.00000000       0.00000000       1.58989899       0.00000000       0.00000000      38.58391190
2
Properties=species:S:1:pos:R:3:forces:R:3 energy=-6.56275601446682 pbc="F F F"
Nb       0.00000000       0.00000000       0.00000000       0.00000000       0.00000000     -29.76148415
Nb       0.00000000       0.00000000       1.64949495       0.00000000       0.00000000      29.76148415
2
Properties=species:S:1:pos:R:3:forces:R:3 energy=-8.132617050278236 pbc="F F F"
Nb       0.00000000       0.00000000       0.00000000       0.00000000       0.00000000     -23.16276932
Nb       0.00000000       0.00000000       1.70909091       0.00000000       0.00000000      23.16276932
2
Properties=species:S:1:pos:R:3:forces:R:3 energy=-9.34039609152555 pbc="F F F"
Nb       0.00000000       0.00000000       0.00000000       0.00000000       0.00000000     -17.44919395
Nb       0.00000000       0.00000000       1.76868687       0.00000000       0.00000000      17.44919395
2
Properties=species:S:1:pos:R:3:forces:R:3 energy=-10.221223659672985 pbc="F F F"
Nb       0.00000000       0.00000000       0.00000000       0.00000000       0.00000000     -12.20575523
Nb       0.00000000       0.00000000       1.82828283       0.00000000       0.00000000      12.20575523
2
Properties=species:S:1:pos:R:3:forces:R:3 energy=-10.810719975274957 pbc="F F F"
Nb       0.00000000       0.00000000       0.00000000       0.00000000       0.00000000      -7.73572874
Nb       0.00000000       0.00000000       1.88787879       0.00000000       0.00000000       7.73572874
2
Properties=species:S:1:pos:R:3:forces:R:3 energy=-11.163239275171223 pbc="F F F"
Nb       0.00000000       0.00000000       0.00000000       0.00000000       0.00000000      -4.25927114
Nb       0.00000000       0.00000000       1.94747475       0.00000000       0.00000000       4.25927114
2
Properties=species:S:1:pos:R:3:forces:R:3 energy=-11.336313483373326 pbc="F F F"
Nb       0.00000000       0.00000000       0.00000000       0.00000000       0.00000000      -1.68150675
Nb       0.00000000       0.00000000       2.00707071       0.00000000       0.00000000       1.68150675
2
Properties=species:S:1:pos:R:3:forces:R:3 energy=-11.377150254819648 pbc="F F F"
Nb       0.00000000       0.00000000       0.00000000       0.00000000       0.00000000       0.21668167
Nb       0.00000000       0.00000000       2.06666667       0.00000000       0.00000000      -0.21668167
2
Properties=species:S:1:pos:R:3:forces:R:3 energy=-11.319765587152562 pbc="F F F"
Nb       0.00000000       0.00000000       0.00000000       0.00000000       0.00000000       1.64599288
Nb       0.00000000       0.00000000       2.12626263       0.00000000       0.00000000      -1.64599288
2
Properties=species:S:1:pos:R:3:forces:R:3 energy=-11.187092559358746 pbc="F F F"
Nb       0.00000000       0.00000000       0.00000000       0.00000000       0.00000000       2.76412845
Nb       0.00000000       0.00000000       2.18585859       0.00000000       0.00000000      -2.76412845
2
Properties=species:S:1:pos:R:3:forces:R:3 energy=-10.994682468771405 pbc="F F F"
Nb       0.00000000       0.00000000       0.00000000       0.00000000       0.00000000       3.65973139
Nb       0.00000000       0.00000000       2.24545455       0.00000000       0.00000000      -3.65973139
2
Properties=species:S:1:pos:R:3:forces:R:3 energy=-10.754718462801693 pbc="F F F"
Nb       0.00000000       0.00000000       0.00000000       0.00000000       0.00000000       4.36126995
Nb       0.00000000       0.00000000       2.30505051       0.00000000       0.00000000      -4.36126995
2
Properties=species:S:1:pos:R:3:forces:R:3 energy=-10.478674129187377 pbc="F F F"
Nb       0.00000000       0.00000000       0.00000000       0.00000000       0.00000000       4.87066221
Nb       0.00000000       0.00000000       2.36464646       0.00000000       0.00000000      -4.87066221
2
Properties=species:S:1:pos:R:3:forces:R:3 energy=-10.177887601275978 pbc="F F F"
Nb       0.00000000       0.00000000       0.00000000       0.00000000       0.00000000       5.19363117
Nb       0.00000000       0.00000000       2.42424242       0.00000000       0.00000000      -5.19363117
2
Properties=species:S:1:pos:R:3:forces:R:3 energy=-9.863015780235706 pbc="F F F"
Nb       0.00000000       0.00000000       0.00000000       0.00000000       0.00000000       5.34653091
Nb       0.00000000       0.00000000       2.48383838       0.00000000       0.00000000      -5.34653091
2
Properties=species:S:1:pos:R:3:forces:R:3 energy=-9.543631158263409 pbc="F F F"
Nb       0.00000000       0.00000000       0.00000000       0.00000000       0.00000000       5.34797621
Nb       0.00000000       0.00000000       2.54343434       0.00000000       0.00000000      -5.34797621
2
Properties=species:S:1:pos:R:3:forces:R:3 energy=-9.228265135442987 pbc="F F F"
Nb       0.00000000       0.00000000       0.00000000       0.00000000       0.00000000       5.21466494
Nb       0.00000000       0.00000000       2.60303030       0.00000000       0.00000000      -5.21466494
2
Properties=species:S:1:pos:R:3:forces:R:3 energy=-8.92428918630772 pbc="F F F"
Nb       0.00000000       0.00000000       0.00000000       0.00000000       0.00000000       4.97124052
Nb       0.00000000       0.00000000       2.66262626       0.00000000       0.00000000      -4.97124052
2
Properties=species:S:1:pos:R:3:forces:R:3 energy=-8.637054251198421 pbc="F F F"
Nb       0.00000000       0.00000000       0.00000000       0.00000000       0.00000000       4.66137838
Nb       0.00000000       0.00000000       2.72222222       0.00000000       0.00000000      -4.66137838
2
Properties=species:S:1:pos:R:3:forces:R:3 energy=-8.369028505057269 pbc="F F F"
Nb       0.00000000       0.00000000       0.00000000       0.00000000       0.00000000       4.33324146
Nb       0.00000000       0.00000000       2.78181818       0.00000000       0.00000000      -4.33324146
2
Properties=species:S:1:pos:R:3:forces:R:3 energy=-8.120544345588423 pbc="F F F"
Nb       0.00000000       0.00000000       0.00000000       0.00000000       0.00000000       4.00485897
Nb       0.00000000       0.00000000       2.84141414       0.00000000       0.00000000      -4.00485897
2
Properties=species:S:1:pos:R:3:forces:R:3 energy=-7.892071328607536 pbc="F F F"
Nb       0.00000000       0.00000000       0.00000000       0.00000000       0.00000000       3.65689564
Nb       0.00000000       0.00000000       2.90101010       0.00000000       0.00000000      -3.65689564
2
Properties=species:S:1:pos:R:3:forces:R:3 energy=-7.685478582477229 pbc="F F F"
Nb       0.00000000       0.00000000       0.00000000       0.00000000       0.00000000       3.26985574
Nb       0.00000000       0.00000000       2.96060606       0.00000000       0.00000000      -3.26985574
2
Properties=species:S:1:pos:R:3:forces:R:3 energy=-7.502750036121026 pbc="F F F"
Nb       0.00000000       0.00000000       0.00000000       0.00000000       0.00000000       2.86303091
Nb       0.00000000       0.00000000       3.02020202       0.00000000       0.00000000      -2.86303091
2
Properties=species:S:1:pos:R:3:forces:R:3 energy=-7.343482093665664 pbc="F F F"
Nb       0.00000000       0.00000000       0.00000000       0.00000000       0.00000000       2.49380398
Nb       0.00000000       0.00000000       3.07979798       0.00000000       0.00000000      -2.49380398
2
Properties=species:S:1:pos:R:3:forces:R:3 energy=-7.203559877042163 pbc="F F F"
Nb       0.00000000       0.00000000       0.00000000       0.00000000       0.00000000       2.22136950
Nb       0.00000000       0.00000000       3.13939394       0.00000000       0.00000000      -2.22136950
2
Properties=species:S:1:pos:R:3:forces:R:3 energy=-7.076341897820933 pbc="F F F"
Nb       0.00000000       0.00000000       0.00000000       0.00000000       0.00000000       2.06640983
Nb       0.00000000       0.00000000       3.19898990       0.00000000       0.00000000      -2.06640983
2
Properties=species:S:1:pos:R:3:forces:R:3 energy=-6.955477550195998 pbc="F F F"
Nb       0.00000000       0.00000000       0.00000000       0.00000000       0.00000000       2.00051999
Nb       0.00000000       0.00000000       3.25858586       0.00000000       0.00000000      -2.00051999
2
Properties=species:S:1:pos:R:3:forces:R:3 energy=-6.837105096668021 pbc="F F F"
Nb       0.00000000       0.00000000       0.00000000       0.00000000       0.00000000       1.97496629
Nb       0.00000000       0.00000000       3.31818182       0.00000000       0.00000000      -1.97496629
2
Properties=species:S:1:pos:R:3:forces:R:3 energy=-6.720023804160636 pbc="F F F"
Nb       0.00000000       0.00000000       0.00000000       0.00000000       0.00000000       1.95278728
Nb       0.00000000       0.00000000       3.37777778       0.00000000       0.00000000      -1.95278728
2
Properties=species:S:1:pos:R:3:forces:R:3 energy=-6.604649376926985 pbc="F F F"
Nb       0.00000000       0.00000000       0.00000000       0.00000000       0.00000000       1.91596115
Nb       0.00000000       0.00000000       3.43737374       0.00000000       0.00000000      -1.91596115
2
Properties=species:S:1:pos:R:3:forces:R:3 energy=-6.492061318548783 pbc="F F F"
Nb       0.00000000       0.00000000       0.00000000       0.00000000       0.00000000       1.85901284
Nb       0.00000000       0.00000000       3.49696970       0.00000000       0.00000000      -1.85901284
2
Properties=species:S:1:pos:R:3:forces:R:3 energy=-6.383431737409177 pbc="F F F"
Nb       0.00000000       0.00000000       0.00000000       0.00000000       0.00000000       1.78394186
Nb       0.00000000       0.00000000       3.55656566       0.00000000       0.00000000      -1.78394186
2
Properties=species:S:1:pos:R:3:forces:R:3 energy=-6.279651034340012 pbc="F F F"
Nb       0.00000000       0.00000000       0.00000000       0.00000000       0.00000000       1.69776237
Nb       0.00000000       0.00000000       3.61616162       0.00000000       0.00000000      -1.69776237
2
Properties=species:S:1:pos:R:3:forces:R:3 energy=-6.181126409078435 pbc="F F F"
Nb       0.00000000       0.00000000       0.00000000       0.00000000       0.00000000       1.60877275
Nb       0.00000000       0.00000000       3.67575758       0.00000000       0.00000000      -1.60877275
2
Properties=species:S:1:pos:R:3:forces:R:3 energy=-6.087861094147174 pbc="F F F"
Nb       0.00000000       0.00000000       0.00000000       0.00000000       0.00000000       1.52145588
Nb       0.00000000       0.00000000       3.73535354       0.00000000       0.00000000      -1.52145588
2
Properties=species:S:1:pos:R:3:forces:R:3 energy=-5.999781293828304 pbc="F F F"
Nb       0.00000000       0.00000000       0.00000000       0.00000000       0.00000000       1.43397474
Nb       0.00000000       0.00000000       3.79494949       0.00000000       0.00000000      -1.43397474
2
Properties=species:S:1:pos:R:3:forces:R:3 energy=-5.917061647890997 pbc="F F F"
Nb       0.00000000       0.00000000       0.00000000       0.00000000       0.00000000       1.34053969
Nb       0.00000000       0.00000000       3.85454545       0.00000000       0.00000000      -1.34053969
2
Properties=species:S:1:pos:R:3:forces:R:3 energy=-5.84022095049157 pbc="F F F"
Nb       0.00000000       0.00000000       0.00000000       0.00000000       0.00000000       1.23614359
Nb       0.00000000       0.00000000       3.91414141       0.00000000       0.00000000      -1.23614359
2
Properties=species:S:1:pos:R:3:forces:R:3 energy=-5.769962236999255 pbc="F F F"
Nb       0.00000000       0.00000000       0.00000000       0.00000000       0.00000000       1.11983907
Nb       0.00000000       0.00000000       3.97373737       0.00000000       0.00000000      -1.11983907
2
Properties=species:S:1:pos:R:3:forces:R:3 energy=-5.7069132498697694 pbc="F F F"
Nb       0.00000000       0.00000000       0.00000000       0.00000000       0.00000000       0.99516469
Nb       0.00000000       0.00000000       4.03333333       0.00000000       0.00000000      -0.99516469
2
Properties=species:S:1:pos:R:3:forces:R:3 energy=-5.651387218447362 pbc="F F F"
Nb       0.00000000       0.00000000       0.00000000       0.00000000       0.00000000       0.86849934
Nb       0.00000000       0.00000000       4.09292929       0.00000000       0.00000000      -0.86849934
2
Properties=species:S:1:pos:R:3:forces:R:3 energy=-5.6032911098254665 pbc="F F F"
Nb       0.00000000       0.00000000       0.00000000       0.00000000       0.00000000       0.74701691
Nb       0.00000000       0.00000000       4.15252525       0.00000000       0.00000000      -0.74701691
2
Properties=species:S:1:pos:R:3:forces:R:3 energy=-5.5621170187714375 pbc="F F F"
Nb       0.00000000       0.00000000       0.00000000       0.00000000       0.00000000       0.63716811
Nb       0.00000000       0.00000000       4.21212121       0.00000000       0.00000000      -0.63716811
2
Properties=species:S:1:pos:R:3:forces:R:3 energy=-5.527015697347415 pbc="F F F"
Nb       0.00000000       0.00000000       0.00000000       0.00000000       0.00000000       0.54387927
Nb       0.00000000       0.00000000       4.27171717       0.00000000       0.00000000      -0.54387927
2
Properties=species:S:1:pos:R:3:forces:R:3 energy=-5.496901191324236 pbc="F F F"
Nb       0.00000000       0.00000000       0.00000000       0.00000000       0.00000000       0.47014329
Nb       0.00000000       0.00000000       4.33131313       0.00000000       0.00000000      -0.47014329
2
Properties=species:S:1:pos:R:3:forces:R:3 energy=-5.470573273289489 pbc="F F F"
Nb       0.00000000       0.00000000       0.00000000       0.00000000       0.00000000       0.41672963
Nb       0.00000000       0.00000000       4.39090909       0.00000000       0.00000000      -0.41672963
2
Properties=species:S:1:pos:R:3:forces:R:3 energy=-5.446855102866423 pbc="F F F"
Nb       0.00000000       0.00000000       0.00000000       0.00000000       0.00000000       0.38212383
Nb       0.00000000       0.00000000       4.45050505       0.00000000       0.00000000      -0.38212383
2
Properties=species:S:1:pos:R:3:forces:R:3 energy=-5.424722462255105 pbc="F F F"
Nb       0.00000000       0.00000000       0.00000000       0.00000000       0.00000000       0.36282268
Nb       0.00000000       0.00000000       4.51010101       0.00000000       0.00000000      -0.36282268
2
Properties=species:S:1:pos:R:3:forces:R:3 energy=-5.4034010896973275 pbc="F F F"
Nb       0.00000000       0.00000000       0.00000000       0.00000000       0.00000000       0.35398331
Nb       0.00000000       0.00000000       4.56969697       0.00000000       0.00000000      -0.35398331
2
Properties=species:S:1:pos:R:3:forces:R:3 energy=-5.382426919349651 pbc="F F F"
Nb       0.00000000       0.00000000       0.00000000       0.00000000       0.00000000       0.35034299
Nb       0.00000000       0.00000000       4.62929293       0.00000000       0.00000000      -0.35034299
2
Properties=species:S:1:pos:R:3:forces:R:3 energy=-5.361637061055101 pbc="F F F"
Nb       0.00000000       0.00000000       0.00000000       0.00000000       0.00000000       0.34707773
Nb       0.00000000       0.00000000       4.68888889       0.00000000       0.00000000      -0.34707773
2
Properties=species:S:1:pos:R:3:forces:R:3 energy=-5.341123998633402 pbc="F F F"
Nb       0.00000000       0.00000000       0.00000000       0.00000000       0.00000000       0.34054661
Nb       0.00000000       0.00000000       4.74848485       0.00000000       0.00000000      -0.34054661
2
Properties=species:S:1:pos:R:3:forces:R:3 energy=-5.321152634550575 pbc="F F F"
Nb       0.00000000       0.00000000       0.00000000       0.00000000       0.00000000       0.32874054
Nb       0.00000000       0.00000000       4.80808081       0.00000000       0.00000000      -0.32874054
2
Properties=species:S:1:pos:R:3:forces:R:3 energy=-5.3020502419056985 pbc="F F F"
Nb       0.00000000       0.00000000       0.00000000       0.00000000       0.00000000       0.31146997
Nb       0.00000000       0.00000000       4.86767677       0.00000000       0.00000000      -0.31146997
2
Properties=species:S:1:pos:R:3:forces:R:3 energy=-5.284106946512861 pbc="F F F"
Nb       0.00000000       0.00000000       0.00000000       0.00000000       0.00000000       0.29021159
Nb       0.00000000       0.00000000       4.92727273       0.00000000       0.00000000      -0.29021159
2
Properties=species:S:1:pos:R:3:forces:R:3 energy=-5.267486342940665 pbc="F F F"
Nb       0.00000000       0.00000000       0.00000000       0.00000000       0.00000000       0.26758665
Nb       0.00000000       0.00000000       4.98686869       0.00000000       0.00000000      -0.26758665
2
Properties=species:S:1:pos:R:3:forces:R:3 energy=-5.252180697161935 pbc="F F F"
Nb       0.00000000       0.00000000       0.00000000       0.00000000       0.00000000       0.24663351
Nb       0.00000000       0.00000000       5.04646465       0.00000000       0.00000000      -0.24663351
2
Properties=species:S:1:pos:R:3:forces:R:3 energy=-5.238004373867651 pbc="F F F"
Nb       0.00000000       0.00000000       0.00000000       0.00000000       0.00000000       0.23001030
Nb       0.00000000       0.00000000       5.10606061       0.00000000       0.00000000      -0.23001030
2
Properties=species:S:1:pos:R:3:forces:R:3 energy=-5.2246440817665905 pbc="F F F"
Nb       0.00000000       0.00000000       0.00000000       0.00000000       0.00000000       0.21934733
Nb       0.00000000       0.00000000       5.16565657       0.00000000       0.00000000      -0.21934733
2
Properties=species:S:1:pos:R:3:forces:R:3 energy=-5.211737361647116 pbc="F F F"
Nb       0.00000000       0.00000000       0.00000000       0.00000000       0.00000000       0.21474168
Nb       0.00000000       0.00000000       5.22525253       0.00000000       0.00000000      -0.21474168
2
Properties=species:S:1:pos:R:3:forces:R:3 energy=-5.198958341037909 pbc="F F F"
Nb       0.00000000       0.00000000       0.00000000       0.00000000       0.00000000       0.21469417
Nb       0.00000000       0.00000000       5.28484848       0.00000000       0.00000000      -0.21469417
2
Properties=species:S:1:pos:R:3:forces:R:3 energy=-5.186103701112807 pbc="F F F"
Nb       0.00000000       0.00000000       0.00000000       0.00000000       0.00000000       0.21676430
Nb       0.00000000       0.00000000       5.34444444       0.00000000       0.00000000      -0.21676430
2
Properties=species:S:1:pos:R:3:forces:R:3 energy=-5.1731888900908 pbc="F F F"
Nb       0.00000000       0.00000000       0.00000000       0.00000000       0.00000000       0.21508916
Nb       0.00000000       0.00000000       5.40404040       0.00000000       0.00000000      -0.21508916
2
Properties=species:S:1:pos:R:3:forces:R:3 energy=-5.160758184598288 pbc="F F F"
Nb       0.00000000       0.00000000       0.00000000       0.00000000       0.00000000       0.19937809
Nb       0.00000000       0.00000000       5.46363636       0.00000000       0.00000000      -0.19937809
2
Properties=species:S:1:pos:R:3:forces:R:3 energy=-5.149602424246178 pbc="F F F"
Nb       0.00000000       0.00000000       0.00000000       0.00000000       0.00000000       0.17496535
Nb       0.00000000       0.00000000       5.52323232       0.00000000       0.00000000      -0.17496535
2
Properties=species:S:1:pos:R:3:forces:R:3 energy=-5.13989557991362 pbc="F F F"
Nb       0.00000000       0.00000000       0.00000000       0.00000000       0.00000000       0.15058672
Nb       0.00000000       0.00000000       5.58282828       0.00000000       0.00000000      -0.15058672
2
Properties=species:S:1:pos:R:3:forces:R:3 energy=-5.131681550633552 pbc="F F F"
Nb       0.00000000       0.00000000       0.00000000       0.00000000       0.00000000       0.12524530
Nb       0.00000000       0.00000000       5.64242424       0.00000000       0.00000000      -0.12524530
2
Properties=species:S:1:pos:R:3:forces:R:3 energy=-5.12482289959846 pbc="F F F"
Nb       0.00000000       0.00000000       0.00000000       0.00000000       0.00000000       0.10752728
Nb       0.00000000       0.00000000       5.70202020       0.00000000       0.00000000      -0.10752728
2
Properties=species:S:1:pos:R:3:forces:R:3 energy=-5.118325198081952 pbc="F F F"
Nb       0.00000000       0.00000000       0.00000000       0.00000000       0.00000000       0.11605390
Nb       0.00000000       0.00000000       5.76161616       0.00000000       0.00000000      -0.11605390
2
Properties=species:S:1:pos:R:3:forces:R:3 energy=-5.110733772961324 pbc="F F F"
Nb       0.00000000       0.00000000       0.00000000       0.00000000       0.00000000       0.13491444
Nb       0.00000000       0.00000000       5.82121212       0.00000000       0.00000000      -0.13491444
2
Properties=species:S:1:pos:R:3:forces:R:3 energy=-5.103256226498794 pbc="F F F"
Nb       0.00000000       0.00000000       0.00000000       0.00000000       0.00000000       0.10746165
Nb       0.00000000       0.00000000       5.88080808       0.00000000       0.00000000      -0.10746165
2
Properties=species:S:1:pos:R:3:forces:R:3 energy=-5.09850118621895 pbc="F F F"
Nb       0.00000000       0.00000000       0.00000000       0.00000000       0.00000000       0.05142787
Nb       0.00000000       0.00000000       5.94040404       0.00000000       0.00000000      -0.05142787
2
Properties=species:S:1:pos:R:3:forces:R:3 energy=-5.096487775108989 pbc="F F F"
Nb       0.00000000       0.00000000       0.00000000       0.00000000       0.00000000       0.02468648
Nb       0.00000000       0.00000000       6.00000000       0.00000000       0.00000000      -0.02468648
