2
Properties=species:S:1:pos:R:3:forces:R:3 energy=16926.499482587493 pbc="F F F"
Ni       0.00000000       0.00000000       0.00000000       0.00000000       0.00000000 -377230.21875000
Ni       0.00000000       0.00000000       0.10000000       0.00000000       0.00000000  377230.21875000
2
Properties=species:S:1:pos:R:3:forces:R:3 energy=5485.650849774994 pbc="F F F"
Ni       0.00000000       0.00000000       0.00000000       0.00000000       0.00000000  -88817.25781250
Ni       0.00000000       0.00000000       0.15959596       0.00000000       0.00000000   88817.25781250
2
Properties=species:S:1:pos:R:3:forces:R:3 energy=2346.4208693062437 pbc="F F F"
Ni       0.00000000       0.00000000       0.00000000       0.00000000       0.00000000  -29427.49218750
Ni       0.00000000       0.00000000       0.21919192       0.00000000       0.00000000   29427.49218750
2
Properties=species:S:1:pos:R:3:forces:R:3 energy=1208.1700148140562 pbc="F F F"
Ni       0.00000000       0.00000000       0.00000000       0.00000000       0.00000000  -11879.77343750
Ni       0.00000000       0.00000000       0.27878788       0.00000000       0.00000000   11879.77343750
2
Properties=species:S:1:pos:R:3:forces:R:3 energy=720.7142042671813 pbc="F F F"
Ni       0.00000000       0.00000000       0.00000000       0.00000000       0.00000000   -5449.43847656
Ni       0.00000000       0.00000000       0.33838384       0.00000000       0.00000000    5449.43847656
2
Properties=species:S:1:pos:R:3:forces:R:3 energy=487.2298903086732 pbc="F F F"
Ni       0.00000000       0.00000000       0.00000000       0.00000000       0.00000000   -2749.25854492
Ni       0.00000000       0.00000000       0.39797980       0.00000000       0.00000000    2749.25854492
2
Properties=species:S:1:pos:R:3:forces:R:3 energy=364.5702528701726 pbc="F F F"
Ni       0.00000000       0.00000000       0.00000000       0.00000000       0.00000000   -1521.75244141
Ni       0.00000000       0.00000000       0.45757576       0.00000000       0.00000000    1521.75244141
2
Properties=species:S:1:pos:R:3:forces:R:3 energy=293.16604757324956 pbc="F F F"
Ni       0.00000000       0.00000000       0.00000000       0.00000000       0.00000000    -946.74798584
Ni       0.00000000       0.00000000       0.51717172       0.00000000       0.00000000     946.74798584
2
Properties=species:S:1:pos:R:3:forces:R:3 energy=245.61808924357564 pbc="F F F"
Ni       0.00000000       0.00000000       0.00000000       0.00000000       0.00000000    -684.60510254
Ni       0.00000000       0.00000000       0.57676768       0.00000000       0.00000000     684.60510254
2
Properties=species:S:1:pos:R:3:forces:R:3 energy=208.54184115065806 pbc="F F F"
Ni       0.00000000       0.00000000       0.00000000       0.00000000       0.00000000    -576.95489502
Ni       0.00000000       0.00000000       0.63636364       0.00000000       0.00000000     576.95489502
2
Properties=species:S:1:pos:R:3:forces:R:3 energy=175.39389204594966 pbc="F F F"
Ni       0.00000000       0.00000000       0.00000000       0.00000000       0.00000000    -544.77313232
Ni       0.00000000       0.00000000       0.69595960       0.00000000       0.00000000     544.77313232
2
Properties=species:S:1:pos:R:3:forces:R:3 energy=143.6115588556599 pbc="F F F"
Ni       0.00000000       0.00000000       0.00000000       0.00000000       0.00000000    -508.55108643
Ni       0.00000000       0.00000000       0.75555556       0.00000000       0.00000000     508.55108643
2
Properties=species:S:1:pos:R:3:forces:R:3 energy=115.23574278287775 pbc="F F F"
Ni       0.00000000       0.00000000       0.00000000       0.00000000       0.00000000    -453.35888672
Ni       0.00000000       0.00000000       0.81515152       0.00000000       0.00000000     453.35888672
2
Properties=species:S:1:pos:R:3:forces:R:3 energy=88.54033912612114 pbc="F F F"
Ni       0.00000000       0.00000000       0.00000000       0.00000000       0.00000000    -430.10882568
Ni       0.00000000       0.00000000       0.87474747       0.00000000       0.00000000     430.10882568
2
Properties=species:S:1:pos:R:3:forces:R:3 energy=65.26930544293519 pbc="F F F"
Ni       0.00000000       0.00000000       0.00000000       0.00000000       0.00000000    -349.02520752
Ni       0.00000000       0.00000000       0.93434343       0.00000000       0.00000000     349.02520752
2
Properties=species:S:1:pos:R:3:forces:R:3 energy=46.76614764338003 pbc="F F F"
Ni       0.00000000       0.00000000       0.00000000       0.00000000       0.00000000    -271.78460693
Ni       0.00000000       0.00000000       0.99393939       0.00000000       0.00000000     271.78460693
2
Properties=species:S:1:pos:R:3:forces:R:3 energy=33.46084702883722 pbc="F F F"
Ni       0.00000000       0.00000000       0.00000000       0.00000000       0.00000000    -171.99681091
Ni       0.00000000       0.00000000       1.05353535       0.00000000       0.00000000     171.99681091
2
Properties=species:S:1:pos:R:3:forces:R:3 energy=25.462006189634725 pbc="F F F"
Ni       0.00000000       0.00000000       0.00000000       0.00000000       0.00000000    -107.82195282
Ni       0.00000000       0.00000000       1.11313131       0.00000000       0.00000000     107.82195282
2
Properties=species:S:1:pos:R:3:forces:R:3 energy=19.68903402219281 pbc="F F F"
Ni       0.00000000       0.00000000       0.00000000       0.00000000       0.00000000     -89.40041351
Ni       0.00000000       0.00000000       1.17272727       0.00000000       0.00000000      89.40041351
2
Properties=species:S:1:pos:R:3:forces:R:3 energy=14.66211610163066 pbc="F F F"
Ni       0.00000000       0.00000000       0.00000000       0.00000000       0.00000000     -79.09001923
Ni       0.00000000       0.00000000       1.23232323       0.00000000       0.00000000      79.09001923
2
Properties=species:S:1:pos:R:3:forces:R:3 energy=10.350302011564336 pbc="F F F"
Ni       0.00000000       0.00000000       0.00000000       0.00000000       0.00000000     -64.94462585
Ni       0.00000000       0.00000000       1.29191919       0.00000000       0.00000000      64.94462585
2
Properties=species:S:1:pos:R:3:forces:R:3 energy=6.932163582924347 pbc="F F F"
Ni       0.00000000       0.00000000       0.00000000       0.00000000       0.00000000     -50.20922089
Ni       0.00000000       0.00000000       1.35151515       0.00000000       0.00000000      50.20922089
2
Properties=species:S:1:pos:R:3:forces:R:3 energy=4.290574515593698 pbc="F F F"
Ni       0.00000000       0.00000000       0.00000000       0.00000000       0.00000000     -39.03688049
Ni       0.00000000       0.00000000       1.41111111       0.00000000       0.00000000      39.03688049
2
Properties=species:S:1:pos:R:3:forces:R:3 energy=2.2277723772743383 pbc="F F F"
Ni       0.00000000       0.00000000       0.00000000       0.00000000       0.00000000     -30.48970604
Ni       0.00000000       0.00000000       1.47070707       0.00000000       0.00000000      30.48970604
2
Properties=species:S:1:pos:R:3:forces:R:3 energy=0.6251837471015951 pbc="F F F"
Ni       0.00000000       0.00000000       0.00000000       0.00000000       0.00000000     -23.55625725
Ni       0.00000000       0.00000000       1.53030303       0.00000000       0.00000000      23.55625725
2
Properties=species:S:1:pos:R:3:forces:R:3 energy=-0.6121153330889268 pbc="F F F"
Ni       0.00000000       0.00000000       0.00000000       0.00000000       0.00000000     -18.22444534
Ni       0.00000000       0.00000000       1.58989899       0.00000000       0.00000000      18.22444534
2
Properties=species:S:1:pos:R:3:forces:R:3 energy=-1.5734682471516808 pbc="F F F"
Ni       0.00000000       0.00000000       0.00000000       0.00000000       0.00000000     -14.21700287
Ni       0.00000000       0.00000000       1.64949495       0.00000000       0.00000000      14.21700287
2
Properties=species:S:1:pos:R:3:forces:R:3 energy=-2.323141108158236 pbc="F F F"
Ni       0.00000000       0.00000000       0.00000000       0.00000000       0.00000000     -11.04553032
Ni       0.00000000       0.00000000       1.70909091       0.00000000       0.00000000      11.04553032
2
Properties=species:S:1:pos:R:3:forces:R:3 energy=-2.8996947030155664 pbc="F F F"
Ni       0.00000000       0.00000000       0.00000000       0.00000000       0.00000000      -8.36859989
Ni       0.00000000       0.00000000       1.76868687       0.00000000       0.00000000       8.36859989
2
Properties=species:S:1:pos:R:3:forces:R:3 energy=-3.327404758012524 pbc="F F F"
Ni       0.00000000       0.00000000       0.00000000       0.00000000       0.00000000      -6.03675652
Ni       0.00000000       0.00000000       1.82828283       0.00000000       0.00000000       6.03675652
2
Properties=species:S:1:pos:R:3:forces:R:3 energy=-3.6251078010751163 pbc="F F F"
Ni       0.00000000       0.00000000       0.00000000       0.00000000       0.00000000      -4.00229502
Ni       0.00000000       0.00000000       1.88787879       0.00000000       0.00000000       4.00229502
2
Properties=species:S:1:pos:R:3:forces:R:3 energy=-3.8102643019119804 pbc="F F F"
Ni       0.00000000       0.00000000       0.00000000       0.00000000       0.00000000      -2.26150560
Ni       0.00000000       0.00000000       1.94747475       0.00000000       0.00000000       2.26150560
2
Properties=species:S:1:pos:R:3:forces:R:3 energy=-3.900890297746362 pbc="F F F"
Ni       0.00000000       0.00000000       0.00000000       0.00000000       0.00000000      -0.83441615
Ni       0.00000000       0.00000000       2.00707071       0.00000000       0.00000000       0.83441615
2
Properties=species:S:1:pos:R:3:forces:R:3 energy=-3.916408113143151 pbc="F F F"
Ni       0.00000000       0.00000000       0.00000000       0.00000000       0.00000000       0.25696024
Ni       0.00000000       0.00000000       2.06666667       0.00000000       0.00000000      -0.25696024
2
Properties=species:S:1:pos:R:3:forces:R:3 energy=-3.876838059467284 pbc="F F F"
Ni       0.00000000       0.00000000       0.00000000       0.00000000       0.00000000       1.01884747
Ni       0.00000000       0.00000000       2.12626263       0.00000000       0.00000000      -1.01884747
2
Properties=species:S:1:pos:R:3:forces:R:3 energy=-3.800594282042335 pbc="F F F"
Ni       0.00000000       0.00000000       0.00000000       0.00000000       0.00000000       1.49843395
Ni       0.00000000       0.00000000       2.18585859       0.00000000       0.00000000      -1.49843395
2
Properties=species:S:1:pos:R:3:forces:R:3 energy=-3.7024490776425254 pbc="F F F"
Ni       0.00000000       0.00000000       0.00000000       0.00000000       0.00000000       1.76576459
Ni       0.00000000       0.00000000       2.24545455       0.00000000       0.00000000      -1.76576459
2
Properties=species:S:1:pos:R:3:forces:R:3 energy=-3.5930020054817318 pbc="F F F"
Ni       0.00000000       0.00000000       0.00000000       0.00000000       0.00000000       1.88834524
Ni       0.00000000       0.00000000       2.30505051       0.00000000       0.00000000      -1.88834524
2
Properties=species:S:1:pos:R:3:forces:R:3 energy=-3.478885357644454 pbc="F F F"
Ni       0.00000000       0.00000000       0.00000000       0.00000000       0.00000000       1.93634379
Ni       0.00000000       0.00000000       2.36464646       0.00000000       0.00000000      -1.93634379
2
Properties=species:S:1:pos:R:3:forces:R:3 energy=-3.3617297892835194 pbc="F F F"
Ni       0.00000000       0.00000000       0.00000000       0.00000000       0.00000000       2.00633216
Ni       0.00000000       0.00000000       2.42424242       0.00000000       0.00000000      -2.00633216
2
Properties=species:S:1:pos:R:3:forces:R:3 energy=-3.23854206511391 pbc="F F F"
Ni       0.00000000       0.00000000       0.00000000       0.00000000       0.00000000       2.13141870
Ni       0.00000000       0.00000000       2.48383838       0.00000000       0.00000000      -2.13141870
2
Properties=species:S:1:pos:R:3:forces:R:3 energy=-3.108225394890182 pbc="F F F"
Ni       0.00000000       0.00000000       0.00000000       0.00000000       0.00000000       2.23220825
Ni       0.00000000       0.00000000       2.54343434       0.00000000       0.00000000      -2.23220825
2
Properties=species:S:1:pos:R:3:forces:R:3 energy=-2.9736832269650884 pbc="F F F"
Ni       0.00000000       0.00000000       0.00000000       0.00000000       0.00000000       2.27408814
Ni       0.00000000       0.00000000       2.60303030       0.00000000       0.00000000      -2.27408814
2
Properties=species:S:1:pos:R:3:forces:R:3 energy=-2.838016881381413 pbc="F F F"
Ni       0.00000000       0.00000000       0.00000000       0.00000000       0.00000000       2.27299905
Ni       0.00000000       0.00000000       2.66262626       0.00000000       0.00000000      -2.27299905
2
Properties=species:S:1:pos:R:3:forces:R:3 energy=-2.7033537418640066 pbc="F F F"
Ni       0.00000000       0.00000000       0.00000000       0.00000000       0.00000000       2.24183059
Ni       0.00000000       0.00000000       2.72222222       0.00000000       0.00000000      -2.24183059
2
Properties=species:S:1:pos:R:3:forces:R:3 energy=-2.57129359941681 pbc="F F F"
Ni       0.00000000       0.00000000       0.00000000       0.00000000       0.00000000       2.18629265
Ni       0.00000000       0.00000000       2.78181818       0.00000000       0.00000000      -2.18629265
2
Properties=species:S:1:pos:R:3:forces:R:3 energy=-2.443158108002579 pbc="F F F"
Ni       0.00000000       0.00000000       0.00000000       0.00000000       0.00000000       2.11099219
Ni       0.00000000       0.00000000       2.84141414       0.00000000       0.00000000      -2.11099219
2
Properties=species:S:1:pos:R:3:forces:R:3 energy=-2.3199650999598775 pbc="F F F"
Ni       0.00000000       0.00000000       0.00000000       0.00000000       0.00000000       2.02141523
Ni       0.00000000       0.00000000       2.90101010       0.00000000       0.00000000      -2.02141523
2
Properties=species:S:1:pos:R:3:forces:R:3 energy=-2.202383202354815 pbc="F F F"
Ni       0.00000000       0.00000000       0.00000000       0.00000000       0.00000000       1.92370152
Ni       0.00000000       0.00000000       2.96060606       0.00000000       0.00000000      -1.92370152
2
Properties=species:S:1:pos:R:3:forces:R:3 energy=-2.09071366587715 pbc="F F F"
Ni       0.00000000       0.00000000       0.00000000       0.00000000       0.00000000       1.82396173
Ni       0.00000000       0.00000000       3.02020202       0.00000000       0.00000000      -1.82396173
2
Properties=species:S:1:pos:R:3:forces:R:3 energy=-1.9849163441462332 pbc="F F F"
Ni       0.00000000       0.00000000       0.00000000       0.00000000       0.00000000       1.72744524
Ni       0.00000000       0.00000000       3.07979798       0.00000000       0.00000000      -1.72744524
2
Properties=species:S:1:pos:R:3:forces:R:3 energy=-1.8846845629846039 pbc="F F F"
Ni       0.00000000       0.00000000       0.00000000       0.00000000       0.00000000       1.63755774
Ni       0.00000000       0.00000000       3.13939394       0.00000000       0.00000000      -1.63755774
2
Properties=species:S:1:pos:R:3:forces:R:3 energy=-1.7895808831277606 pbc="F F F"
Ni       0.00000000       0.00000000       0.00000000       0.00000000       0.00000000       1.55524695
Ni       0.00000000       0.00000000       3.19898990       0.00000000       0.00000000      -1.55524695
2
Properties=species:S:1:pos:R:3:forces:R:3 energy=-1.699185473776047 pbc="F F F"
Ni       0.00000000       0.00000000       0.00000000       0.00000000       0.00000000       1.47922516
Ni       0.00000000       0.00000000       3.25858586       0.00000000       0.00000000      -1.47922516
2
Properties=species:S:1:pos:R:3:forces:R:3 energy=-1.6131946249852802 pbc="F F F"
Ni       0.00000000       0.00000000       0.00000000       0.00000000       0.00000000       1.40697801
Ni       0.00000000       0.00000000       3.31818182       0.00000000       0.00000000      -1.40697801
2
Properties=species:S:1:pos:R:3:forces:R:3 energy=-1.5314604823740396 pbc="F F F"
Ni       0.00000000       0.00000000       0.00000000       0.00000000       0.00000000       1.33600771
Ni       0.00000000       0.00000000       3.37777778       0.00000000       0.00000000      -1.33600771
2
Properties=species:S:1:pos:R:3:forces:R:3 energy=-1.4539598851498425 pbc="F F F"
Ni       0.00000000       0.00000000       0.00000000       0.00000000       0.00000000       1.26475382
Ni       0.00000000       0.00000000       3.43737374       0.00000000       0.00000000      -1.26475382
2
Properties=species:S:1:pos:R:3:forces:R:3 energy=-1.3807223395236305 pbc="F F F"
Ni       0.00000000       0.00000000       0.00000000       0.00000000       0.00000000       1.19297314
Ni       0.00000000       0.00000000       3.49696970       0.00000000       0.00000000      -1.19297314
2
Properties=species:S:1:pos:R:3:forces:R:3 energy=-1.3117591588745747 pbc="F F F"
Ni       0.00000000       0.00000000       0.00000000       0.00000000       0.00000000       1.12154937
Ni       0.00000000       0.00000000       3.55656566       0.00000000       0.00000000      -1.12154937
2
Properties=species:S:1:pos:R:3:forces:R:3 energy=-1.2470073680278029 pbc="F F F"
Ni       0.00000000       0.00000000       0.00000000       0.00000000       0.00000000       1.05192864
Ni       0.00000000       0.00000000       3.61616162       0.00000000       0.00000000      -1.05192864
2
Properties=species:S:1:pos:R:3:forces:R:3 energy=-1.1863168096441954 pbc="F F F"
Ni       0.00000000       0.00000000       0.00000000       0.00000000       0.00000000       0.98540866
Ni       0.00000000       0.00000000       3.67575758       0.00000000       0.00000000      -0.98540866
2
Properties=species:S:1:pos:R:3:forces:R:3 energy=-1.1294797663129448 pbc="F F F"
Ni       0.00000000       0.00000000       0.00000000       0.00000000       0.00000000       0.92263430
Ni       0.00000000       0.00000000       3.73535354       0.00000000       0.00000000      -0.92263430
2
Properties=species:S:1:pos:R:3:forces:R:3 energy=-1.0762749476114477 pbc="F F F"
Ni       0.00000000       0.00000000       0.00000000       0.00000000       0.00000000       0.86340809
Ni       0.00000000       0.00000000       3.79494949       0.00000000       0.00000000      -0.86340809
2
Properties=species:S:1:pos:R:3:forces:R:3 energy=-1.0265154324145893 pbc="F F F"
Ni       0.00000000       0.00000000       0.00000000       0.00000000       0.00000000       0.80683720
Ni       0.00000000       0.00000000       3.85454545       0.00000000       0.00000000      -0.80683720
2
Properties=species:S:1:pos:R:3:forces:R:3 energy=-0.9800783254973119 pbc="F F F"
Ni       0.00000000       0.00000000       0.00000000       0.00000000       0.00000000       0.75170338
Ni       0.00000000       0.00000000       3.91414141       0.00000000       0.00000000      -0.75170338
2
Properties=species:S:1:pos:R:3:forces:R:3 energy=-0.9369132835826647 pbc="F F F"
Ni       0.00000000       0.00000000       0.00000000       0.00000000       0.00000000       0.69681722
Ni       0.00000000       0.00000000       3.97373737       0.00000000       0.00000000      -0.69681722
2
Properties=species:S:1:pos:R:3:forces:R:3 energy=-0.8970359703342141 pbc="F F F"
Ni       0.00000000       0.00000000       0.00000000       0.00000000       0.00000000       0.64130694
Ni       0.00000000       0.00000000       4.03333333       0.00000000       0.00000000      -0.64130694
2
Properties=species:S:1:pos:R:3:forces:R:3 energy=-0.860496473645852 pbc="F F F"
Ni       0.00000000       0.00000000       0.00000000       0.00000000       0.00000000       0.58474362
Ni       0.00000000       0.00000000       4.09292929       0.00000000       0.00000000      -0.58474362
2
Properties=species:S:1:pos:R:3:forces:R:3 energy=-0.8273588436575979 pbc="F F F"
Ni       0.00000000       0.00000000       0.00000000       0.00000000       0.00000000       0.52719069
Ni       0.00000000       0.00000000       4.15252525       0.00000000       0.00000000      -0.52719069
2
Properties=species:S:1:pos:R:3:forces:R:3 energy=-0.7976685690423796 pbc="F F F"
Ni       0.00000000       0.00000000       0.00000000       0.00000000       0.00000000       0.46921656
Ni       0.00000000       0.00000000       4.21212121       0.00000000       0.00000000      -0.46921656
2
Properties=species:S:1:pos:R:3:forces:R:3 energy=-0.7714194713335468 pbc="F F F"
Ni       0.00000000       0.00000000       0.00000000       0.00000000       0.00000000       0.41188940
Ni       0.00000000       0.00000000       4.27171717       0.00000000       0.00000000      -0.41188940
2
Properties=species:S:1:pos:R:3:forces:R:3 energy=-0.7485317603281516 pbc="F F F"
Ni       0.00000000       0.00000000       0.00000000       0.00000000       0.00000000       0.35672498
Ni       0.00000000       0.00000000       4.33131313       0.00000000       0.00000000      -0.35672498
2
Properties=species:S:1:pos:R:3:forces:R:3 energy=-0.7288225262839287 pbc="F F F"
Ni       0.00000000       0.00000000       0.00000000       0.00000000       0.00000000       0.30551329
Ni       0.00000000       0.00000000       4.39090909       0.00000000       0.00000000      -0.30551329
2
Properties=species:S:1:pos:R:3:forces:R:3 energy=-0.7120026614845696 pbc="F F F"
Ni       0.00000000       0.00000000       0.00000000       0.00000000       0.00000000       0.26003411
Ni       0.00000000       0.00000000       4.45050505       0.00000000       0.00000000      -0.26003411
2
Properties=species:S:1:pos:R:3:forces:R:3 energy=-0.6976864580034258 pbc="F F F"
Ni       0.00000000       0.00000000       0.00000000       0.00000000       0.00000000       0.22168377
Ni       0.00000000       0.00000000       4.51010101       0.00000000       0.00000000      -0.22168377
2
Properties=species:S:1:pos:R:3:forces:R:3 energy=-0.6854243251497638 pbc="F F F"
Ni       0.00000000       0.00000000       0.00000000       0.00000000       0.00000000       0.19112033
Ni       0.00000000       0.00000000       4.56969697       0.00000000       0.00000000      -0.19112033
2
Properties=species:S:1:pos:R:3:forces:R:3 energy=-0.674756268090394 pbc="F F F"
Ni       0.00000000       0.00000000       0.00000000       0.00000000       0.00000000       0.16807300
Ni       0.00000000       0.00000000       4.62929293       0.00000000       0.00000000      -0.16807300
2
Properties=species:S:1:pos:R:3:forces:R:3 energy=-0.6652651378041274 pbc="F F F"
Ni       0.00000000       0.00000000       0.00000000       0.00000000       0.00000000       0.15137014
Ni       0.00000000       0.00000000       4.68888889       0.00000000       0.00000000      -0.15137014
2
Properties=species:S:1:pos:R:3:forces:R:3 energy=-0.6566239076525252 pbc="F F F"
Ni       0.00000000       0.00000000       0.00000000       0.00000000       0.00000000       0.13920954
Ni       0.00000000       0.00000000       4.74848485       0.00000000       0.00000000      -0.13920954
2
Properties=species:S:1:pos:R:3:forces:R:3 energy=-0.648621700434781 pbc="F F F"
Ni       0.00000000       0.00000000       0.00000000       0.00000000       0.00000000       0.12961730
Ni       0.00000000       0.00000000       4.80808081       0.00000000       0.00000000      -0.12961730
2
Properties=species:S:1:pos:R:3:forces:R:3 energy=-0.6411565405477407 pbc="F F F"
Ni       0.00000000       0.00000000       0.00000000       0.00000000       0.00000000       0.12094870
Ni       0.00000000       0.00000000       4.86767677       0.00000000       0.00000000      -0.12094870
2
Properties=species:S:1:pos:R:3:forces:R:3 energy=-0.6342062536639885 pbc="F F F"
Ni       0.00000000       0.00000000       0.00000000       0.00000000       0.00000000       0.11225344
Ni       0.00000000       0.00000000       4.92727273       0.00000000       0.00000000      -0.11225344
2
Properties=species:S:1:pos:R:3:forces:R:3 energy=-0.6277812388463806 pbc="F F F"
Ni       0.00000000       0.00000000       0.00000000       0.00000000       0.00000000       0.10335656
Ni       0.00000000       0.00000000       4.98686869       0.00000000       0.00000000      -0.10335656
2
Properties=species:S:1:pos:R:3:forces:R:3 energy=-0.6218843351992204 pbc="F F F"
Ni       0.00000000       0.00000000       0.00000000       0.00000000       0.00000000       0.09463008
Ni       0.00000000       0.00000000       5.04646465       0.00000000       0.00000000      -0.09463008
2
Properties=species:S:1:pos:R:3:forces:R:3 energy=-0.6164904012337662 pbc="F F F"
Ni       0.00000000       0.00000000       0.00000000       0.00000000       0.00000000       0.08650316
Ni       0.00000000       0.00000000       5.10606061       0.00000000       0.00000000      -0.08650316
2
Properties=species:S:1:pos:R:3:forces:R:3 energy=-0.611560781541907 pbc="F F F"
Ni       0.00000000       0.00000000       0.00000000       0.00000000       0.00000000       0.07896741
Ni       0.00000000       0.00000000       5.16565657       0.00000000       0.00000000      -0.07896741
2
Properties=species:S:1:pos:R:3:forces:R:3 energy=-0.6070799705723197 pbc="F F F"
Ni       0.00000000       0.00000000       0.00000000       0.00000000       0.00000000       0.07129487
Ni       0.00000000       0.00000000       5.22525253       0.00000000       0.00000000      -0.07129487
2
Properties=species:S:1:pos:R:3:forces:R:3 energy=-0.6030889775603195 pbc="F F F"
Ni       0.00000000       0.00000000       0.00000000       0.00000000       0.00000000       0.06236895
Ni       0.00000000       0.00000000       5.28484848       0.00000000       0.00000000      -0.06236895
2
Properties=species:S:1:pos:R:3:forces:R:3 energy=-0.5996707451486865 pbc="F F F"
Ni       0.00000000       0.00000000       0.00000000       0.00000000       0.00000000       0.05234494
Ni       0.00000000       0.00000000       5.34444444       0.00000000       0.00000000      -0.05234494
2
Properties=species:S:1:pos:R:3:forces:R:3 energy=-0.5967989593303578 pbc="F F F"
Ni       0.00000000       0.00000000       0.00000000       0.00000000       0.00000000       0.04493435
Ni       0.00000000       0.00000000       5.40404040       0.00000000       0.00000000      -0.04493435
2
Properties=species:S:1:pos:R:3:forces:R:3 energy=-0.5941806705955076 pbc="F F F"
Ni       0.00000000       0.00000000       0.00000000       0.00000000       0.00000000       0.04381260
Ni       0.00000000       0.00000000       5.46363636       0.00000000       0.00000000      -0.04381260
2
Properties=species:S:1:pos:R:3:forces:R:3 energy=-0.591574627084157 pbc="F F F"
Ni       0.00000000       0.00000000       0.00000000       0.00000000       0.00000000       0.04278317
Ni       0.00000000       0.00000000       5.52323232       0.00000000       0.00000000      -0.04278317
2
Properties=species:S:1:pos:R:3:forces:R:3 energy=-0.5892248536114462 pbc="F F F"
Ni       0.00000000       0.00000000       0.00000000       0.00000000       0.00000000       0.03515640
Ni       0.00000000       0.00000000       5.58282828       0.00000000       0.00000000      -0.03515640
2
Properties=species:S:1:pos:R:3:forces:R:3 energy=-0.58739072072867 pbc="F F F"
Ni       0.00000000       0.00000000       0.00000000       0.00000000       0.00000000       0.02728174
Ni       0.00000000       0.00000000       5.64242424       0.00000000       0.00000000      -0.02728174
2
Properties=species:S:1:pos:R:3:forces:R:3 energy=-0.5857852691487563 pbc="F F F"
Ni       0.00000000       0.00000000       0.00000000       0.00000000       0.00000000       0.02840990
Ni       0.00000000       0.00000000       5.70202020       0.00000000       0.00000000      -0.02840990
2
Properties=species:S:1:pos:R:3:forces:R:3 energy=-0.5838703186781932 pbc="F F F"
Ni       0.00000000       0.00000000       0.00000000       0.00000000       0.00000000       0.03577241
Ni       0.00000000       0.00000000       5.76161616       0.00000000       0.00000000      -0.03577241
2
Properties=species:S:1:pos:R:3:forces:R:3 energy=-0.5816909976002627 pbc="F F F"
Ni       0.00000000       0.00000000       0.00000000       0.00000000       0.00000000       0.03519832
Ni       0.00000000       0.00000000       5.82121212       0.00000000       0.00000000      -0.03519832
2
Properties=species:S:1:pos:R:3:forces:R:3 energy=-0.5798817053074051 pbc="F F F"
Ni       0.00000000       0.00000000       0.00000000       0.00000000       0.00000000       0.02478727
Ni       0.00000000       0.00000000       5.88080808       0.00000000       0.00000000      -0.02478727
2
Properties=species:S:1:pos:R:3:forces:R:3 energy=-0.5787323174257688 pbc="F F F"
Ni       0.00000000       0.00000000       0.00000000       0.00000000       0.00000000       0.01423012
Ni       0.00000000       0.00000000       5.94040404       0.00000000       0.00000000      -0.01423012
2
Properties=species:S:1:pos:R:3:forces:R:3 energy=-0.5780584191679543 pbc="F F F"
Ni       0.00000000       0.00000000       0.00000000       0.00000000       0.00000000       0.00971282
Ni       0.00000000       0.00000000       6.00000000       0.00000000       0.00000000      -0.00971282
