2
Properties=species:S:1:pos:R:3:forces:R:3 energy=2317.3852980452157 pbc="F F F"
O        0.00000000       0.00000000       0.00000000       0.00000000       0.00000000  -40562.41406250
O        0.00000000       0.00000000       0.10000000       0.00000000       0.00000000   40562.41406250
2
Properties=species:S:1:pos:R:3:forces:R:3 energy=1010.1169264631845 pbc="F F F"
O        0.00000000       0.00000000       0.00000000       0.00000000       0.00000000  -11101.66308594
O        0.00000000       0.00000000       0.15959596       0.00000000       0.00000000   11101.66308594
2
Properties=species:S:1:pos:R:3:forces:R:3 energy=597.950300488206 pbc="F F F"
O        0.00000000       0.00000000       0.00000000       0.00000000       0.00000000   -4109.28320312
O        0.00000000       0.00000000       0.21919192       0.00000000       0.00000000    4109.28320312
2
Properties=species:S:1:pos:R:3:forces:R:3 energy=431.3975966315761 pbc="F F F"
O        0.00000000       0.00000000       0.00000000       0.00000000       0.00000000   -1850.50256348
O        0.00000000       0.00000000       0.27878788       0.00000000       0.00000000    1850.50256348
2
Properties=species:S:1:pos:R:3:forces:R:3 energy=350.4542982956921 pbc="F F F"
O        0.00000000       0.00000000       0.00000000       0.00000000       0.00000000   -1056.04455566
O        0.00000000       0.00000000       0.33838384       0.00000000       0.00000000    1056.04455566
2
Properties=species:S:1:pos:R:3:forces:R:3 energy=297.5624831180648 pbc="F F F"
O        0.00000000       0.00000000       0.00000000       0.00000000       0.00000000    -880.10174561
O        0.00000000       0.00000000       0.39797980       0.00000000       0.00000000     880.10174561
2
Properties=species:S:1:pos:R:3:forces:R:3 energy=232.78198081852773 pbc="F F F"
O        0.00000000       0.00000000       0.00000000       0.00000000       0.00000000   -1151.28125000
O        0.00000000       0.00000000       0.45757576       0.00000000       0.00000000    1151.28125000
2
Properties=species:S:1:pos:R:3:forces:R:3 energy=167.51334987272043 pbc="F F F"
O        0.00000000       0.00000000       0.00000000       0.00000000       0.00000000   -1040.17565918
O        0.00000000       0.00000000       0.51717172       0.00000000       0.00000000    1040.17565918
2
Properties=species:S:1:pos:R:3:forces:R:3 energy=111.22476808872429 pbc="F F F"
O        0.00000000       0.00000000       0.00000000       0.00000000       0.00000000    -820.23016357
O        0.00000000       0.00000000       0.57676768       0.00000000       0.00000000     820.23016357
2
Properties=species:S:1:pos:R:3:forces:R:3 energy=68.74922803450548 pbc="F F F"
O        0.00000000       0.00000000       0.00000000       0.00000000       0.00000000    -608.97576904
O        0.00000000       0.00000000       0.63636364       0.00000000       0.00000000     608.97576904
2
Properties=species:S:1:pos:R:3:forces:R:3 energy=38.99521133093108 pbc="F F F"
O        0.00000000       0.00000000       0.00000000       0.00000000       0.00000000    -389.53952026
O        0.00000000       0.00000000       0.69595960       0.00000000       0.00000000     389.53952026
2
Properties=species:S:1:pos:R:3:forces:R:3 energy=20.339711183456927 pbc="F F F"
O        0.00000000       0.00000000       0.00000000       0.00000000       0.00000000    -254.13606262
O        0.00000000       0.00000000       0.75555556       0.00000000       0.00000000     254.13606262
2
Properties=species:S:1:pos:R:3:forces:R:3 energy=8.454343230682815 pbc="F F F"
O        0.00000000       0.00000000       0.00000000       0.00000000       0.00000000    -148.15208435
O        0.00000000       0.00000000       0.81515152       0.00000000       0.00000000     148.15208435
2
Properties=species:S:1:pos:R:3:forces:R:3 energy=1.5396194517071706 pbc="F F F"
O        0.00000000       0.00000000       0.00000000       0.00000000       0.00000000     -92.34851074
O        0.00000000       0.00000000       0.87474747       0.00000000       0.00000000      92.34851074
2
Properties=species:S:1:pos:R:3:forces:R:3 energy=-3.0675395974395268 pbc="F F F"
O        0.00000000       0.00000000       0.00000000       0.00000000       0.00000000     -63.79811096
O        0.00000000       0.00000000       0.93434343       0.00000000       0.00000000      63.79811096
2
Properties=species:S:1:pos:R:3:forces:R:3 energy=-6.165970792760661 pbc="F F F"
O        0.00000000       0.00000000       0.00000000       0.00000000       0.00000000     -41.13422012
O        0.00000000       0.00000000       0.99393939       0.00000000       0.00000000      41.13422012
2
Properties=species:S:1:pos:R:3:forces:R:3 energy=-8.100197252848352 pbc="F F F"
O        0.00000000       0.00000000       0.00000000       0.00000000       0.00000000     -24.76836586
O        0.00000000       0.00000000       1.05353535       0.00000000       0.00000000      24.76836586
2
Properties=species:S:1:pos:R:3:forces:R:3 energy=-9.212948249160752 pbc="F F F"
O        0.00000000       0.00000000       0.00000000       0.00000000       0.00000000     -13.23246288
O        0.00000000       0.00000000       1.11313131       0.00000000       0.00000000      13.23246288
2
Properties=species:S:1:pos:R:3:forces:R:3 energy=-9.747743576597216 pbc="F F F"
O        0.00000000       0.00000000       0.00000000       0.00000000       0.00000000      -5.24527168
O        0.00000000       0.00000000       1.17272727       0.00000000       0.00000000       5.24527168
2
Properties=species:S:1:pos:R:3:forces:R:3 energy=-9.89274337577358 pbc="F F F"
O        0.00000000       0.00000000       0.00000000       0.00000000       0.00000000      -0.00106884
O        0.00000000       0.00000000       1.23232323       0.00000000       0.00000000       0.00106884
2
Properties=species:S:1:pos:R:3:forces:R:3 energy=-9.784658425010672 pbc="F F F"
O        0.00000000       0.00000000       0.00000000       0.00000000       0.00000000       3.38038731
O        0.00000000       0.00000000       1.29191919       0.00000000       0.00000000      -3.38038731
2
Properties=species:S:1:pos:R:3:forces:R:3 energy=-9.514120628078475 pbc="F F F"
O        0.00000000       0.00000000       0.00000000       0.00000000       0.00000000       5.53416300
O        0.00000000       0.00000000       1.35151515       0.00000000       0.00000000      -5.53416300
2
Properties=species:S:1:pos:R:3:forces:R:3 energy=-9.141615658030522 pbc="F F F"
O        0.00000000       0.00000000       0.00000000       0.00000000       0.00000000       6.84366846
O        0.00000000       0.00000000       1.41111111       0.00000000       0.00000000      -6.84366846
2
Properties=species:S:1:pos:R:3:forces:R:3 energy=-8.711133494669257 pbc="F F F"
O        0.00000000       0.00000000       0.00000000       0.00000000       0.00000000       7.51882505
O        0.00000000       0.00000000       1.47070707       0.00000000       0.00000000      -7.51882505
2
Properties=species:S:1:pos:R:3:forces:R:3 energy=-8.251075809613171 pbc="F F F"
O        0.00000000       0.00000000       0.00000000       0.00000000       0.00000000       7.91768456
O        0.00000000       0.00000000       1.53030303       0.00000000       0.00000000      -7.91768456
2
Properties=species:S:1:pos:R:3:forces:R:3 energy=-7.763601322056303 pbc="F F F"
O        0.00000000       0.00000000       0.00000000       0.00000000       0.00000000       8.47964001
O        0.00000000       0.00000000       1.58989899       0.00000000       0.00000000      -8.47964001
2
Properties=species:S:1:pos:R:3:forces:R:3 energy=-7.242657165751745 pbc="F F F"
O        0.00000000       0.00000000       0.00000000       0.00000000       0.00000000       8.89722443
O        0.00000000       0.00000000       1.64949495       0.00000000       0.00000000      -8.89722443
2
Properties=species:S:1:pos:R:3:forces:R:3 energy=-6.722592316870675 pbc="F F F"
O        0.00000000       0.00000000       0.00000000       0.00000000       0.00000000       8.39798546
O        0.00000000       0.00000000       1.70909091       0.00000000       0.00000000      -8.39798546
2
Properties=species:S:1:pos:R:3:forces:R:3 energy=-6.249966311128092 pbc="F F F"
O        0.00000000       0.00000000       0.00000000       0.00000000       0.00000000       7.49318933
O        0.00000000       0.00000000       1.76868687       0.00000000       0.00000000      -7.49318933
2
Properties=species:S:1:pos:R:3:forces:R:3 energy=-5.81972270352806 pbc="F F F"
O        0.00000000       0.00000000       0.00000000       0.00000000       0.00000000       7.03127670
O        0.00000000       0.00000000       1.82828283       0.00000000       0.00000000      -7.03127670
2
Properties=species:S:1:pos:R:3:forces:R:3 energy=-5.40655046583333 pbc="F F F"
O        0.00000000       0.00000000       0.00000000       0.00000000       0.00000000       6.83180904
O        0.00000000       0.00000000       1.88787879       0.00000000       0.00000000      -6.83180904
2
Properties=species:S:1:pos:R:3:forces:R:3 energy=-5.009703907258687 pbc="F F F"
O        0.00000000       0.00000000       0.00000000       0.00000000       0.00000000       6.43276358
O        0.00000000       0.00000000       1.94747475       0.00000000       0.00000000      -6.43276358
2
Properties=species:S:1:pos:R:3:forces:R:3 energy=-4.646036819076514 pbc="F F F"
O        0.00000000       0.00000000       0.00000000       0.00000000       0.00000000       5.72838116
O        0.00000000       0.00000000       2.00707071       0.00000000       0.00000000      -5.72838116
2
Properties=species:S:1:pos:R:3:forces:R:3 energy=-4.330374932391695 pbc="F F F"
O        0.00000000       0.00000000       0.00000000       0.00000000       0.00000000       4.85103893
O        0.00000000       0.00000000       2.06666667       0.00000000       0.00000000      -4.85103893
2
Properties=species:S:1:pos:R:3:forces:R:3 energy=-4.06800676377895 pbc="F F F"
O        0.00000000       0.00000000       0.00000000       0.00000000       0.00000000       3.96265650
O        0.00000000       0.00000000       2.12626263       0.00000000       0.00000000      -3.96265650
2
Properties=species:S:1:pos:R:3:forces:R:3 energy=-3.8562318884648654 pbc="F F F"
O        0.00000000       0.00000000       0.00000000       0.00000000       0.00000000       3.16364717
O        0.00000000       0.00000000       2.18585859       0.00000000       0.00000000      -3.16364717
2
Properties=species:S:1:pos:R:3:forces:R:3 energy=-3.6885096769101517 pbc="F F F"
O        0.00000000       0.00000000       0.00000000       0.00000000       0.00000000       2.48507071
O        0.00000000       0.00000000       2.24545455       0.00000000       0.00000000      -2.48507071
2
Properties=species:S:1:pos:R:3:forces:R:3 energy=-3.557731763998063 pbc="F F F"
O        0.00000000       0.00000000       0.00000000       0.00000000       0.00000000       1.92199898
O        0.00000000       0.00000000       2.30505051       0.00000000       0.00000000      -1.92199898
2
Properties=species:S:1:pos:R:3:forces:R:3 energy=-3.457369982183745 pbc="F F F"
O        0.00000000       0.00000000       0.00000000       0.00000000       0.00000000       1.46239078
O        0.00000000       0.00000000       2.36464646       0.00000000       0.00000000      -1.46239078
2
Properties=species:S:1:pos:R:3:forces:R:3 energy=-3.3815749344894455 pbc="F F F"
O        0.00000000       0.00000000       0.00000000       0.00000000       0.00000000       1.09595954
O        0.00000000       0.00000000       2.42424242       0.00000000       0.00000000      -1.09595954
2
Properties=species:S:1:pos:R:3:forces:R:3 energy=-3.3250966723936726 pbc="F F F"
O        0.00000000       0.00000000       0.00000000       0.00000000       0.00000000       0.81222564
O        0.00000000       0.00000000       2.48383838       0.00000000       0.00000000      -0.81222564
2
Properties=species:S:1:pos:R:3:forces:R:3 energy=-3.283371291668606 pbc="F F F"
O        0.00000000       0.00000000       0.00000000       0.00000000       0.00000000       0.59858757
O        0.00000000       0.00000000       2.54343434       0.00000000       0.00000000      -0.59858757
2
Properties=species:S:1:pos:R:3:forces:R:3 energy=-3.2526349408104203 pbc="F F F"
O        0.00000000       0.00000000       0.00000000       0.00000000       0.00000000       0.44107145
O        0.00000000       0.00000000       2.60303030       0.00000000       0.00000000      -0.44107145
2
Properties=species:S:1:pos:R:3:forces:R:3 energy=-3.2299512763977885 pbc="F F F"
O        0.00000000       0.00000000       0.00000000       0.00000000       0.00000000       0.32628730
O        0.00000000       0.00000000       2.66262626       0.00000000       0.00000000      -0.32628730
2
Properties=species:S:1:pos:R:3:forces:R:3 energy=-3.2131199412437748 pbc="F F F"
O        0.00000000       0.00000000       0.00000000       0.00000000       0.00000000       0.24304079
O        0.00000000       0.00000000       2.72222222       0.00000000       0.00000000      -0.24304079
2
Properties=species:S:1:pos:R:3:forces:R:3 energy=-3.2005256739456636 pbc="F F F"
O        0.00000000       0.00000000       0.00000000       0.00000000       0.00000000       0.18289474
O        0.00000000       0.00000000       2.78181818       0.00000000       0.00000000      -0.18289474
2
Properties=species:S:1:pos:R:3:forces:R:3 energy=-3.1909800013243004 pbc="F F F"
O        0.00000000       0.00000000       0.00000000       0.00000000       0.00000000       0.13992500
O        0.00000000       0.00000000       2.84141414       0.00000000       0.00000000      -0.13992500
2
Properties=species:S:1:pos:R:3:forces:R:3 energy=-3.1835898895858965 pbc="F F F"
O        0.00000000       0.00000000       0.00000000       0.00000000       0.00000000       0.10998157
O        0.00000000       0.00000000       2.90101010       0.00000000       0.00000000      -0.10998157
2
Properties=species:S:1:pos:R:3:forces:R:3 energy=-3.1776749829807707 pbc="F F F"
O        0.00000000       0.00000000       0.00000000       0.00000000       0.00000000       0.08992907
O        0.00000000       0.00000000       2.96060606       0.00000000       0.00000000      -0.08992907
2
Properties=species:S:1:pos:R:3:forces:R:3 energy=-3.1727270726449013 pbc="F F F"
O        0.00000000       0.00000000       0.00000000       0.00000000       0.00000000       0.07709104
O        0.00000000       0.00000000       3.02020202       0.00000000       0.00000000      -0.07709104
2
Properties=species:S:1:pos:R:3:forces:R:3 energy=-3.1683921589776505 pbc="F F F"
O        0.00000000       0.00000000       0.00000000       0.00000000       0.00000000       0.06900515
O        0.00000000       0.00000000       3.07979798       0.00000000       0.00000000      -0.06900515
2
Properties=species:S:1:pos:R:3:forces:R:3 energy=-3.1644527694651123 pbc="F F F"
O        0.00000000       0.00000000       0.00000000       0.00000000       0.00000000       0.06347336
O        0.00000000       0.00000000       3.13939394       0.00000000       0.00000000      -0.06347336
2
Properties=species:S:1:pos:R:3:forces:R:3 energy=-3.1608107347296626 pbc="F F F"
O        0.00000000       0.00000000       0.00000000       0.00000000       0.00000000       0.05877259
O        0.00000000       0.00000000       3.19898990       0.00000000       0.00000000      -0.05877259
2
Properties=species:S:1:pos:R:3:forces:R:3 energy=-3.1574518320962084 pbc="F F F"
O        0.00000000       0.00000000       0.00000000       0.00000000       0.00000000       0.05387205
O        0.00000000       0.00000000       3.25858586       0.00000000       0.00000000      -0.05387205
2
Properties=species:S:1:pos:R:3:forces:R:3 energy=-3.1543985256525073 pbc="F F F"
O        0.00000000       0.00000000       0.00000000       0.00000000       0.00000000       0.04852922
O        0.00000000       0.00000000       3.31818182       0.00000000       0.00000000      -0.04852922
2
Properties=species:S:1:pos:R:3:forces:R:3 energy=-3.1516672239871735 pbc="F F F"
O        0.00000000       0.00000000       0.00000000       0.00000000       0.00000000       0.04319851
O        0.00000000       0.00000000       3.37777778       0.00000000       0.00000000      -0.04319851
2
Properties=species:S:1:pos:R:3:forces:R:3 energy=-3.1492324663216826 pbc="F F F"
O        0.00000000       0.00000000       0.00000000       0.00000000       0.00000000       0.03874620
O        0.00000000       0.00000000       3.43737374       0.00000000       0.00000000      -0.03874620
2
Properties=species:S:1:pos:R:3:forces:R:3 energy=-3.147013289093808 pbc="F F F"
O        0.00000000       0.00000000       0.00000000       0.00000000       0.00000000       0.03609160
O        0.00000000       0.00000000       3.49696970       0.00000000       0.00000000      -0.03609160
2
Properties=species:S:1:pos:R:3:forces:R:3 energy=-3.1448820201225796 pbc="F F F"
O        0.00000000       0.00000000       0.00000000       0.00000000       0.00000000       0.03586732
O        0.00000000       0.00000000       3.55656566       0.00000000       0.00000000      -0.03586732
2
Properties=species:S:1:pos:R:3:forces:R:3 energy=-3.1426869208497235 pbc="F F F"
O        0.00000000       0.00000000       0.00000000       0.00000000       0.00000000       0.03820428
O        0.00000000       0.00000000       3.61616162       0.00000000       0.00000000      -0.03820428
2
Properties=species:S:1:pos:R:3:forces:R:3 energy=-3.140285545537825 pbc="F F F"
O        0.00000000       0.00000000       0.00000000       0.00000000       0.00000000       0.04269584
O        0.00000000       0.00000000       3.67575758       0.00000000       0.00000000      -0.04269584
2
Properties=species:S:1:pos:R:3:forces:R:3 energy=-3.1375712257294843 pbc="F F F"
O        0.00000000       0.00000000       0.00000000       0.00000000       0.00000000       0.04852317
O        0.00000000       0.00000000       3.73535354       0.00000000       0.00000000      -0.04852317
2
Properties=species:S:1:pos:R:3:forces:R:3 energy=-3.134495252480653 pbc="F F F"
O        0.00000000       0.00000000       0.00000000       0.00000000       0.00000000       0.05466820
O        0.00000000       0.00000000       3.79494949       0.00000000       0.00000000      -0.05466820
2
Properties=species:S:1:pos:R:3:forces:R:3 energy=-3.131068806477987 pbc="F F F"
O        0.00000000       0.00000000       0.00000000       0.00000000       0.00000000       0.06015085
O        0.00000000       0.00000000       3.85454545       0.00000000       0.00000000      -0.06015085
2
Properties=species:S:1:pos:R:3:forces:R:3 energy=-3.127354873981912 pbc="F F F"
O        0.00000000       0.00000000       0.00000000       0.00000000       0.00000000       0.06420207
O        0.00000000       0.00000000       3.91414141       0.00000000       0.00000000      -0.06420207
2
Properties=species:S:1:pos:R:3:forces:R:3 energy=-3.12345468468606 pbc="F F F"
O        0.00000000       0.00000000       0.00000000       0.00000000       0.00000000       0.06632040
O        0.00000000       0.00000000       3.97373737       0.00000000       0.00000000      -0.06632040
2
Properties=species:S:1:pos:R:3:forces:R:3 energy=-3.1194929553059296 pbc="F F F"
O        0.00000000       0.00000000       0.00000000       0.00000000       0.00000000       0.06624591
O        0.00000000       0.00000000       4.03333333       0.00000000       0.00000000      -0.06624591
2
Properties=species:S:1:pos:R:3:forces:R:3 energy=-3.115603607034873 pbc="F F F"
O        0.00000000       0.00000000       0.00000000       0.00000000       0.00000000       0.06389225
O        0.00000000       0.00000000       4.09292929       0.00000000       0.00000000      -0.06389225
2
Properties=species:S:1:pos:R:3:forces:R:3 energy=-3.1119226369433792 pbc="F F F"
O        0.00000000       0.00000000       0.00000000       0.00000000       0.00000000       0.05928949
O        0.00000000       0.00000000       4.15252525       0.00000000       0.00000000      -0.05928949
2
Properties=species:S:1:pos:R:3:forces:R:3 energy=-3.108579077079999 pbc="F F F"
O        0.00000000       0.00000000       0.00000000       0.00000000       0.00000000       0.05261441
O        0.00000000       0.00000000       4.21212121       0.00000000       0.00000000      -0.05261441
2
Properties=species:S:1:pos:R:3:forces:R:3 energy=-3.105684997324101 pbc="F F F"
O        0.00000000       0.00000000       0.00000000       0.00000000       0.00000000       0.04426587
O        0.00000000       0.00000000       4.27171717       0.00000000       0.00000000      -0.04426587
2
Properties=species:S:1:pos:R:3:forces:R:3 energy=-3.103322885040291 pbc="F F F"
O        0.00000000       0.00000000       0.00000000       0.00000000       0.00000000       0.03489544
O        0.00000000       0.00000000       4.33131313       0.00000000       0.00000000      -0.03489544
2
Properties=species:S:1:pos:R:3:forces:R:3 energy=-3.1015282493326417 pbc="F F F"
O        0.00000000       0.00000000       0.00000000       0.00000000       0.00000000       0.02539677
O        0.00000000       0.00000000       4.39090909       0.00000000       0.00000000      -0.02539677
2
Properties=species:S:1:pos:R:3:forces:R:3 energy=-3.100277712787026 pbc="F F F"
O        0.00000000       0.00000000       0.00000000       0.00000000       0.00000000       0.01679282
O        0.00000000       0.00000000       4.45050505       0.00000000       0.00000000      -0.01679282
2
Properties=species:S:1:pos:R:3:forces:R:3 energy=-3.099489255730369 pbc="F F F"
O        0.00000000       0.00000000       0.00000000       0.00000000       0.00000000       0.01006284
O        0.00000000       0.00000000       4.51010101       0.00000000       0.00000000      -0.01006284
2
Properties=species:S:1:pos:R:3:forces:R:3 energy=-3.0990269865821185 pbc="F F F"
O        0.00000000       0.00000000       0.00000000       0.00000000       0.00000000       0.00592085
O        0.00000000       0.00000000       4.56969697       0.00000000       0.00000000      -0.00592085
2
Properties=species:S:1:pos:R:3:forces:R:3 energy=-3.0987261864964517 pbc="F F F"
O        0.00000000       0.00000000       0.00000000       0.00000000       0.00000000       0.00465108
O        0.00000000       0.00000000       4.62929293       0.00000000       0.00000000      -0.00465108
2
Properties=species:S:1:pos:R:3:forces:R:3 energy=-3.098420486011462 pbc="F F F"
O        0.00000000       0.00000000       0.00000000       0.00000000       0.00000000       0.00598519
O        0.00000000       0.00000000       4.68888889       0.00000000       0.00000000      -0.00598519
2
Properties=species:S:1:pos:R:3:forces:R:3 energy=-3.097976680497355 pbc="F F F"
O        0.00000000       0.00000000       0.00000000       0.00000000       0.00000000       0.00911634
O        0.00000000       0.00000000       4.74848485       0.00000000       0.00000000      -0.00911634
2
Properties=species:S:1:pos:R:3:forces:R:3 energy=-3.0973221427493556 pbc="F F F"
O        0.00000000       0.00000000       0.00000000       0.00000000       0.00000000       0.01283833
O        0.00000000       0.00000000       4.80808081       0.00000000       0.00000000      -0.01283833
2
Properties=species:S:1:pos:R:3:forces:R:3 energy=-3.0964617589233625 pbc="F F F"
O        0.00000000       0.00000000       0.00000000       0.00000000       0.00000000       0.01580407
O        0.00000000       0.00000000       4.86767677       0.00000000       0.00000000      -0.01580407
2
Properties=species:S:1:pos:R:3:forces:R:3 energy=-3.0954760160891017 pbc="F F F"
O        0.00000000       0.00000000       0.00000000       0.00000000       0.00000000       0.01687436
O        0.00000000       0.00000000       4.92727273       0.00000000       0.00000000      -0.01687436
2
Properties=species:S:1:pos:R:3:forces:R:3 energy=-3.094500975366465 pbc="F F F"
O        0.00000000       0.00000000       0.00000000       0.00000000       0.00000000       0.01541343
O        0.00000000       0.00000000       4.98686869       0.00000000       0.00000000      -0.01541343
2
Properties=species:S:1:pos:R:3:forces:R:3 energy=-3.093688218148692 pbc="F F F"
O        0.00000000       0.00000000       0.00000000       0.00000000       0.00000000       0.01149865
O        0.00000000       0.00000000       5.04646465       0.00000000       0.00000000      -0.01149865
2
Properties=species:S:1:pos:R:3:forces:R:3 energy=-3.093164549699706 pbc="F F F"
O        0.00000000       0.00000000       0.00000000       0.00000000       0.00000000       0.00588152
O        0.00000000       0.00000000       5.10606061       0.00000000       0.00000000      -0.00588152
2
Properties=species:S:1:pos:R:3:forces:R:3 energy=-3.092997669403081 pbc="F F F"
O        0.00000000       0.00000000       0.00000000       0.00000000       0.00000000      -0.00026813
O        0.00000000       0.00000000       5.16565657       0.00000000       0.00000000       0.00026813
2
Properties=species:S:1:pos:R:3:forces:R:3 energy=-3.0931830543248853 pbc="F F F"
O        0.00000000       0.00000000       0.00000000       0.00000000       0.00000000      -0.00575703
O        0.00000000       0.00000000       5.22525253       0.00000000       0.00000000       0.00575703
2
Properties=species:S:1:pos:R:3:forces:R:3 energy=-3.0936523022305398 pbc="F F F"
O        0.00000000       0.00000000       0.00000000       0.00000000       0.00000000      -0.00965364
O        0.00000000       0.00000000       5.28484848       0.00000000       0.00000000       0.00965364
2
Properties=species:S:1:pos:R:3:forces:R:3 energy=-3.0942860073760228 pbc="F F F"
O        0.00000000       0.00000000       0.00000000       0.00000000       0.00000000      -0.01112301
O        0.00000000       0.00000000       5.34444444       0.00000000       0.00000000       0.01112301
2
Properties=species:S:1:pos:R:3:forces:R:3 energy=-3.094905650638136 pbc="F F F"
O        0.00000000       0.00000000       0.00000000       0.00000000       0.00000000      -0.00895590
O        0.00000000       0.00000000       5.40404040       0.00000000       0.00000000       0.00895590
2
Properties=species:S:1:pos:R:3:forces:R:3 energy=-3.0952719312526633 pbc="F F F"
O        0.00000000       0.00000000       0.00000000       0.00000000       0.00000000      -0.00287686
O        0.00000000       0.00000000       5.46363636       0.00000000       0.00000000       0.00287686
2
Properties=species:S:1:pos:R:3:forces:R:3 energy=-3.0952516575676157 pbc="F F F"
O        0.00000000       0.00000000       0.00000000       0.00000000       0.00000000       0.00301958
O        0.00000000       0.00000000       5.52323232       0.00000000       0.00000000      -0.00301958
2
Properties=species:S:1:pos:R:3:forces:R:3 energy=-3.0950077668240197 pbc="F F F"
O        0.00000000       0.00000000       0.00000000       0.00000000       0.00000000       0.00435350
O        0.00000000       0.00000000       5.58282828       0.00000000       0.00000000      -0.00435350
2
Properties=species:S:1:pos:R:3:forces:R:3 energy=-3.0948014353346434 pbc="F F F"
O        0.00000000       0.00000000       0.00000000       0.00000000       0.00000000       0.00229277
O        0.00000000       0.00000000       5.64242424       0.00000000       0.00000000      -0.00229277
2
Properties=species:S:1:pos:R:3:forces:R:3 energy=-3.0947231427722492 pbc="F F F"
O        0.00000000       0.00000000       0.00000000       0.00000000       0.00000000       0.00079246
O        0.00000000       0.00000000       5.70202020       0.00000000       0.00000000      -0.00079246
2
Properties=species:S:1:pos:R:3:forces:R:3 energy=-3.0946375958444095 pbc="F F F"
O        0.00000000       0.00000000       0.00000000       0.00000000       0.00000000       0.00251125
O        0.00000000       0.00000000       5.76161616       0.00000000       0.00000000      -0.00251125
2
Properties=species:S:1:pos:R:3:forces:R:3 energy=-3.0944245304891833 pbc="F F F"
O        0.00000000       0.00000000       0.00000000       0.00000000       0.00000000       0.00423286
O        0.00000000       0.00000000       5.82121212       0.00000000       0.00000000      -0.00423286
2
Properties=species:S:1:pos:R:3:forces:R:3 energy=-3.094192572746602 pbc="F F F"
O        0.00000000       0.00000000       0.00000000       0.00000000       0.00000000       0.00319127
O        0.00000000       0.00000000       5.88080808       0.00000000       0.00000000      -0.00319127
2
Properties=species:S:1:pos:R:3:forces:R:3 energy=-3.09406299216698 pbc="F F F"
O        0.00000000       0.00000000       0.00000000       0.00000000       0.00000000       0.00115016
O        0.00000000       0.00000000       5.94040404       0.00000000       0.00000000      -0.00115016
2
Properties=species:S:1:pos:R:3:forces:R:3 energy=-3.094031418688552 pbc="F F F"
O        0.00000000       0.00000000       0.00000000       0.00000000       0.00000000       0.00021801
O        0.00000000       0.00000000       6.00000000       0.00000000       0.00000000      -0.00021801
