2
Properties=species:S:1:pos:R:3:forces:R:3 energy=81516.75447911753 pbc="F F F"
Os       0.00000000       0.00000000       0.00000000       0.00000000       0.00000000 -2051797.62500000
Os       0.00000000       0.00000000       0.10000000       0.00000000       0.00000000 2051797.62500000
2
Properties=species:S:1:pos:R:3:forces:R:3 energy=22693.988854117524 pbc="F F F"
Os       0.00000000       0.00000000       0.00000000       0.00000000       0.00000000 -420835.53125000
Os       0.00000000       0.00000000       0.15959596       0.00000000       0.00000000  420835.53125000
2
Properties=species:S:1:pos:R:3:forces:R:3 energy=8443.809166617526 pbc="F F F"
Os       0.00000000       0.00000000       0.00000000       0.00000000       0.00000000 -125863.07812500
Os       0.00000000       0.00000000       0.21919192       0.00000000       0.00000000  125863.07812500
2
Properties=species:S:1:pos:R:3:forces:R:3 energy=3771.8587271644005 pbc="F F F"
Os       0.00000000       0.00000000       0.00000000       0.00000000       0.00000000  -46027.15625000
Os       0.00000000       0.00000000       0.27878788       0.00000000       0.00000000   46027.15625000
2
Properties=species:S:1:pos:R:3:forces:R:3 energy=1967.3007437722986 pbc="F F F"
Os       0.00000000       0.00000000       0.00000000       0.00000000       0.00000000  -18959.01171875
Os       0.00000000       0.00000000       0.33838384       0.00000000       0.00000000   18959.01171875
2
Properties=species:S:1:pos:R:3:forces:R:3 energy=1195.947106076986 pbc="F F F"
Os       0.00000000       0.00000000       0.00000000       0.00000000       0.00000000   -8471.80761719
Os       0.00000000       0.00000000       0.39797980       0.00000000       0.00000000    8471.80761719
2
Properties=species:S:1:pos:R:3:forces:R:3 energy=840.9520499309781 pbc="F F F"
Os       0.00000000       0.00000000       0.00000000       0.00000000       0.00000000   -4044.74365234
Os       0.00000000       0.00000000       0.45757576       0.00000000       0.00000000    4044.74365234
2
Properties=species:S:1:pos:R:3:forces:R:3 energy=666.6133658616181 pbc="F F F"
Os       0.00000000       0.00000000       0.00000000       0.00000000       0.00000000   -2060.10546875
Os       0.00000000       0.00000000       0.51717172       0.00000000       0.00000000    2060.10546875
2
Properties=species:S:1:pos:R:3:forces:R:3 energy=574.8341910822732 pbc="F F F"
Os       0.00000000       0.00000000       0.00000000       0.00000000       0.00000000   -1135.68310547
Os       0.00000000       0.00000000       0.57676768       0.00000000       0.00000000    1135.68310547
2
Properties=species:S:1:pos:R:3:forces:R:3 energy=521.4198234413379 pbc="F F F"
Os       0.00000000       0.00000000       0.00000000       0.00000000       0.00000000    -715.55615234
Os       0.00000000       0.00000000       0.63636364       0.00000000       0.00000000     715.55615234
2
Properties=species:S:1:pos:R:3:forces:R:3 energy=482.59209523321005 pbc="F F F"
Os       0.00000000       0.00000000       0.00000000       0.00000000       0.00000000    -613.72808838
Os       0.00000000       0.00000000       0.69595960       0.00000000       0.00000000     613.72808838
2
Properties=species:S:1:pos:R:3:forces:R:3 energy=446.22274108019786 pbc="F F F"
Os       0.00000000       0.00000000       0.00000000       0.00000000       0.00000000    -650.98992920
Os       0.00000000       0.00000000       0.75555556       0.00000000       0.00000000     650.98992920
2
Properties=species:S:1:pos:R:3:forces:R:3 energy=405.12337598837485 pbc="F F F"
Os       0.00000000       0.00000000       0.00000000       0.00000000       0.00000000    -739.46936035
Os       0.00000000       0.00000000       0.81515152       0.00000000       0.00000000     739.46936035
2
Properties=species:S:1:pos:R:3:forces:R:3 energy=356.9087765817404 pbc="F F F"
Os       0.00000000       0.00000000       0.00000000       0.00000000       0.00000000    -892.60046387
Os       0.00000000       0.00000000       0.87474747       0.00000000       0.00000000     892.60046387
2
Properties=species:S:1:pos:R:3:forces:R:3 energy=302.4682556329457 pbc="F F F"
Os       0.00000000       0.00000000       0.00000000       0.00000000       0.00000000    -920.48083496
Os       0.00000000       0.00000000       0.93434343       0.00000000       0.00000000     920.48083496
2
Properties=species:S:1:pos:R:3:forces:R:3 energy=248.02196697275912 pbc="F F F"
Os       0.00000000       0.00000000       0.00000000       0.00000000       0.00000000    -922.73510742
Os       0.00000000       0.00000000       0.99393939       0.00000000       0.00000000     922.73510742
2
Properties=species:S:1:pos:R:3:forces:R:3 energy=194.79954014946048 pbc="F F F"
Os       0.00000000       0.00000000       0.00000000       0.00000000       0.00000000    -839.84936523
Os       0.00000000       0.00000000       1.05353535       0.00000000       0.00000000     839.84936523
2
Properties=species:S:1:pos:R:3:forces:R:3 energy=148.61559617591112 pbc="F F F"
Os       0.00000000       0.00000000       0.00000000       0.00000000       0.00000000    -708.98248291
Os       0.00000000       0.00000000       1.11313131       0.00000000       0.00000000     708.98248291
2
Properties=species:S:1:pos:R:3:forces:R:3 energy=110.31621969118717 pbc="F F F"
Os       0.00000000       0.00000000       0.00000000       0.00000000       0.00000000    -573.36944580
Os       0.00000000       0.00000000       1.17272727       0.00000000       0.00000000     573.36944580
2
Properties=species:S:1:pos:R:3:forces:R:3 energy=80.69791955087535 pbc="F F F"
Os       0.00000000       0.00000000       0.00000000       0.00000000       0.00000000    -421.70019531
Os       0.00000000       0.00000000       1.23232323       0.00000000       0.00000000     421.70019531
2
Properties=species:S:1:pos:R:3:forces:R:3 energy=59.05200135398867 pbc="F F F"
Os       0.00000000       0.00000000       0.00000000       0.00000000       0.00000000    -316.55310059
Os       0.00000000       0.00000000       1.29191919       0.00000000       0.00000000     316.55310059
2
Properties=species:S:1:pos:R:3:forces:R:3 energy=42.0112090151719 pbc="F F F"
Os       0.00000000       0.00000000       0.00000000       0.00000000       0.00000000    -258.40039062
Os       0.00000000       0.00000000       1.35151515       0.00000000       0.00000000     258.40039062
2
Properties=species:S:1:pos:R:3:forces:R:3 energy=28.169738949039772 pbc="F F F"
Os       0.00000000       0.00000000       0.00000000       0.00000000       0.00000000    -206.64804077
Os       0.00000000       0.00000000       1.41111111       0.00000000       0.00000000     206.64804077
2
Properties=species:S:1:pos:R:3:forces:R:3 energy=17.22971299791739 pbc="F F F"
Os       0.00000000       0.00000000       0.00000000       0.00000000       0.00000000    -161.17338562
Os       0.00000000       0.00000000       1.47070707       0.00000000       0.00000000     161.17338562
2
Properties=species:S:1:pos:R:3:forces:R:3 energy=8.980587633835551 pbc="F F F"
Os       0.00000000       0.00000000       0.00000000       0.00000000       0.00000000    -115.66545105
Os       0.00000000       0.00000000       1.53030303       0.00000000       0.00000000     115.66545105
2
Properties=species:S:1:pos:R:3:forces:R:3 energy=3.300790527014181 pbc="F F F"
Os       0.00000000       0.00000000       0.00000000       0.00000000       0.00000000     -77.37410736
Os       0.00000000       0.00000000       1.58989899       0.00000000       0.00000000      77.37410736
2
Properties=species:S:1:pos:R:3:forces:R:3 energy=-0.5688620890042984 pbc="F F F"
Os       0.00000000       0.00000000       0.00000000       0.00000000       0.00000000     -54.80996704
Os       0.00000000       0.00000000       1.64949495       0.00000000       0.00000000      54.80996704
2
Properties=species:S:1:pos:R:3:forces:R:3 energy=-3.415066715597065 pbc="F F F"
Os       0.00000000       0.00000000       0.00000000       0.00000000       0.00000000     -41.62947464
Os       0.00000000       0.00000000       1.70909091       0.00000000       0.00000000      41.62947464
2
Properties=species:S:1:pos:R:3:forces:R:3 energy=-5.605786327031628 pbc="F F F"
Os       0.00000000       0.00000000       0.00000000       0.00000000       0.00000000     -32.33721161
Os       0.00000000       0.00000000       1.76868687       0.00000000       0.00000000      32.33721161
2
Properties=species:S:1:pos:R:3:forces:R:3 energy=-7.308604112451714 pbc="F F F"
Os       0.00000000       0.00000000       0.00000000       0.00000000       0.00000000     -25.04264641
Os       0.00000000       0.00000000       1.82828283       0.00000000       0.00000000      25.04264641
2
Properties=species:S:1:pos:R:3:forces:R:3 energy=-8.611793005384685 pbc="F F F"
Os       0.00000000       0.00000000       0.00000000       0.00000000       0.00000000     -18.83177185
Os       0.00000000       0.00000000       1.88787879       0.00000000       0.00000000      18.83177185
2
Properties=species:S:1:pos:R:3:forces:R:3 energy=-9.567784612913826 pbc="F F F"
Os       0.00000000       0.00000000       0.00000000       0.00000000       0.00000000     -13.36337280
Os       0.00000000       0.00000000       1.94747475       0.00000000       0.00000000      13.36337280
2
Properties=species:S:1:pos:R:3:forces:R:3 energy=-10.218101132003694 pbc="F F F"
Os       0.00000000       0.00000000       0.00000000       0.00000000       0.00000000      -8.57958126
Os       0.00000000       0.00000000       2.00707071       0.00000000       0.00000000       8.57958126
2
Properties=species:S:1:pos:R:3:forces:R:3 energy=-10.605566733977152 pbc="F F F"
Os       0.00000000       0.00000000       0.00000000       0.00000000       0.00000000      -4.55840111
Os       0.00000000       0.00000000       2.06666667       0.00000000       0.00000000       4.55840111
2
Properties=species:S:1:pos:R:3:forces:R:3 energy=-10.77790734911081 pbc="F F F"
Os       0.00000000       0.00000000       0.00000000       0.00000000       0.00000000      -1.36283135
Os       0.00000000       0.00000000       2.12626263       0.00000000       0.00000000       1.36283135
2
Properties=species:S:1:pos:R:3:forces:R:3 energy=-10.783641553110652 pbc="F F F"
Os       0.00000000       0.00000000       0.00000000       0.00000000       0.00000000       1.04878151
Os       0.00000000       0.00000000       2.18585859       0.00000000       0.00000000      -1.04878151
2
Properties=species:S:1:pos:R:3:forces:R:3 energy=-10.665905234153977 pbc="F F F"
Os       0.00000000       0.00000000       0.00000000       0.00000000       0.00000000       2.80623913
Os       0.00000000       0.00000000       2.24545455       0.00000000       0.00000000      -2.80623913
2
Properties=species:S:1:pos:R:3:forces:R:3 energy=-10.459243954859966 pbc="F F F"
Os       0.00000000       0.00000000       0.00000000       0.00000000       0.00000000       4.05374289
Os       0.00000000       0.00000000       2.30505051       0.00000000       0.00000000      -4.05374289
2
Properties=species:S:1:pos:R:3:forces:R:3 energy=-10.191141530020541 pbc="F F F"
Os       0.00000000       0.00000000       0.00000000       0.00000000       0.00000000       4.87566185
Os       0.00000000       0.00000000       2.36464646       0.00000000       0.00000000      -4.87566185
2
Properties=species:S:1:pos:R:3:forces:R:3 energy=-9.886044334851535 pbc="F F F"
Os       0.00000000       0.00000000       0.00000000       0.00000000       0.00000000       5.29876280
Os       0.00000000       0.00000000       2.42424242       0.00000000       0.00000000      -5.29876280
2
Properties=species:S:1:pos:R:3:forces:R:3 energy=-9.566581217891327 pbc="F F F"
Os       0.00000000       0.00000000       0.00000000       0.00000000       0.00000000       5.37166929
Os       0.00000000       0.00000000       2.48383838       0.00000000       0.00000000      -5.37166929
2
Properties=species:S:1:pos:R:3:forces:R:3 energy=-9.250511998183436 pbc="F F F"
Os       0.00000000       0.00000000       0.00000000       0.00000000       0.00000000       5.20707560
Os       0.00000000       0.00000000       2.54343434       0.00000000       0.00000000      -5.20707560
2
Properties=species:S:1:pos:R:3:forces:R:3 energy=-8.948138495461672 pbc="F F F"
Os       0.00000000       0.00000000       0.00000000       0.00000000       0.00000000       4.92948580
Os       0.00000000       0.00000000       2.60303030       0.00000000       0.00000000      -4.92948580
2
Properties=species:S:1:pos:R:3:forces:R:3 energy=-8.663842814945669 pbc="F F F"
Os       0.00000000       0.00000000       0.00000000       0.00000000       0.00000000       4.60511017
Os       0.00000000       0.00000000       2.66262626       0.00000000       0.00000000      -4.60511017
2
Properties=species:S:1:pos:R:3:forces:R:3 energy=-8.40001719420192 pbc="F F F"
Os       0.00000000       0.00000000       0.00000000       0.00000000       0.00000000       4.24198580
Os       0.00000000       0.00000000       2.72222222       0.00000000       0.00000000      -4.24198580
2
Properties=species:S:1:pos:R:3:forces:R:3 energy=-8.158892771333484 pbc="F F F"
Os       0.00000000       0.00000000       0.00000000       0.00000000       0.00000000       3.84688258
Os       0.00000000       0.00000000       2.78181818       0.00000000       0.00000000      -3.84688258
2
Properties=species:S:1:pos:R:3:forces:R:3 energy=-7.941449180948983 pbc="F F F"
Os       0.00000000       0.00000000       0.00000000       0.00000000       0.00000000       3.45434213
Os       0.00000000       0.00000000       2.84141414       0.00000000       0.00000000      -3.45434213
2
Properties=species:S:1:pos:R:3:forces:R:3 energy=-7.746372770262471 pbc="F F F"
Os       0.00000000       0.00000000       0.00000000       0.00000000       0.00000000       3.10068512
Os       0.00000000       0.00000000       2.90101010       0.00000000       0.00000000      -3.10068512
2
Properties=species:S:1:pos:R:3:forces:R:3 energy=-7.5708154621672215 pbc="F F F"
Os       0.00000000       0.00000000       0.00000000       0.00000000       0.00000000       2.79957509
Os       0.00000000       0.00000000       2.96060606       0.00000000       0.00000000      -2.79957509
2
Properties=species:S:1:pos:R:3:forces:R:3 energy=-7.411758190824209 pbc="F F F"
Os       0.00000000       0.00000000       0.00000000       0.00000000       0.00000000       2.54507995
Os       0.00000000       0.00000000       3.02020202       0.00000000       0.00000000      -2.54507995
2
Properties=species:S:1:pos:R:3:forces:R:3 energy=-7.2667160650471905 pbc="F F F"
Os       0.00000000       0.00000000       0.00000000       0.00000000       0.00000000       2.32854438
Os       0.00000000       0.00000000       3.07979798       0.00000000       0.00000000      -2.32854438
2
Properties=species:S:1:pos:R:3:forces:R:3 energy=-7.133466753120057 pbc="F F F"
Os       0.00000000       0.00000000       0.00000000       0.00000000       0.00000000       2.14974022
Os       0.00000000       0.00000000       3.13939394       0.00000000       0.00000000      -2.14974022
2
Properties=species:S:1:pos:R:3:forces:R:3 energy=-7.009713632520783 pbc="F F F"
Os       0.00000000       0.00000000       0.00000000       0.00000000       0.00000000       2.00919819
Os       0.00000000       0.00000000       3.19898990       0.00000000       0.00000000      -2.00919819
2
Properties=species:S:1:pos:R:3:forces:R:3 energy=-6.893446935743489 pbc="F F F"
Os       0.00000000       0.00000000       0.00000000       0.00000000       0.00000000       1.89543664
Os       0.00000000       0.00000000       3.25858586       0.00000000       0.00000000      -1.89543664
2
Properties=species:S:1:pos:R:3:forces:R:3 energy=-6.783675706154709 pbc="F F F"
Os       0.00000000       0.00000000       0.00000000       0.00000000       0.00000000       1.78785121
Os       0.00000000       0.00000000       3.31818182       0.00000000       0.00000000      -1.78785121
2
Properties=species:S:1:pos:R:3:forces:R:3 energy=-6.6805286741078955 pbc="F F F"
Os       0.00000000       0.00000000       0.00000000       0.00000000       0.00000000       1.67184651
Os       0.00000000       0.00000000       3.37777778       0.00000000       0.00000000      -1.67184651
2
Properties=species:S:1:pos:R:3:forces:R:3 energy=-6.584588317854332 pbc="F F F"
Os       0.00000000       0.00000000       0.00000000       0.00000000       0.00000000       1.54692888
Os       0.00000000       0.00000000       3.43737374       0.00000000       0.00000000      -1.54692888
2
Properties=species:S:1:pos:R:3:forces:R:3 energy=-6.496166514557761 pbc="F F F"
Os       0.00000000       0.00000000       0.00000000       0.00000000       0.00000000       1.42089891
Os       0.00000000       0.00000000       3.49696970       0.00000000       0.00000000      -1.42089891
2
Properties=species:S:1:pos:R:3:forces:R:3 energy=-6.41512025773993 pbc="F F F"
Os       0.00000000       0.00000000       0.00000000       0.00000000       0.00000000       1.30004287
Os       0.00000000       0.00000000       3.55656566       0.00000000       0.00000000      -1.30004287
2
Properties=species:S:1:pos:R:3:forces:R:3 energy=-6.341087761365992 pbc="F F F"
Os       0.00000000       0.00000000       0.00000000       0.00000000       0.00000000       1.18536949
Os       0.00000000       0.00000000       3.61616162       0.00000000       0.00000000      -1.18536949
2
Properties=species:S:1:pos:R:3:forces:R:3 energy=-6.27374695943723 pbc="F F F"
Os       0.00000000       0.00000000       0.00000000       0.00000000       0.00000000       1.07515275
Os       0.00000000       0.00000000       3.67575758       0.00000000       0.00000000      -1.07515275
2
Properties=species:S:1:pos:R:3:forces:R:3 energy=-6.212862289885534 pbc="F F F"
Os       0.00000000       0.00000000       0.00000000       0.00000000       0.00000000       0.96887290
Os       0.00000000       0.00000000       3.73535354       0.00000000       0.00000000      -0.96887290
2
Properties=species:S:1:pos:R:3:forces:R:3 energy=-6.158140285774372 pbc="F F F"
Os       0.00000000       0.00000000       0.00000000       0.00000000       0.00000000       0.86894786
Os       0.00000000       0.00000000       3.79494949       0.00000000       0.00000000      -0.86894786
2
Properties=species:S:1:pos:R:3:forces:R:3 energy=-6.10907648839626 pbc="F F F"
Os       0.00000000       0.00000000       0.00000000       0.00000000       0.00000000       0.77979785
Os       0.00000000       0.00000000       3.85454545       0.00000000       0.00000000      -0.77979785
2
Properties=species:S:1:pos:R:3:forces:R:3 energy=-6.064895489335887 pbc="F F F"
Os       0.00000000       0.00000000       0.00000000       0.00000000       0.00000000       0.70563596
Os       0.00000000       0.00000000       3.91414141       0.00000000       0.00000000      -0.70563596
2
Properties=species:S:1:pos:R:3:forces:R:3 energy=-6.024630546436425 pbc="F F F"
Os       0.00000000       0.00000000       0.00000000       0.00000000       0.00000000       0.64844292
Os       0.00000000       0.00000000       3.97373737       0.00000000       0.00000000      -0.64844292
2
Properties=species:S:1:pos:R:3:forces:R:3 energy=-5.987291036005431 pbc="F F F"
Os       0.00000000       0.00000000       0.00000000       0.00000000       0.00000000       0.60700685
Os       0.00000000       0.00000000       4.03333333       0.00000000       0.00000000      -0.60700685
2
Properties=species:S:1:pos:R:3:forces:R:3 energy=-5.952051769837949 pbc="F F F"
Os       0.00000000       0.00000000       0.00000000       0.00000000       0.00000000       0.57701063
Os       0.00000000       0.00000000       4.09292929       0.00000000       0.00000000      -0.57701063
2
Properties=species:S:1:pos:R:3:forces:R:3 energy=-5.9184175357143065 pbc="F F F"
Os       0.00000000       0.00000000       0.00000000       0.00000000       0.00000000       0.55193812
Os       0.00000000       0.00000000       4.15252525       0.00000000       0.00000000      -0.55193812
2
Properties=species:S:1:pos:R:3:forces:R:3 energy=-5.8863142176468415 pbc="F F F"
Os       0.00000000       0.00000000       0.00000000       0.00000000       0.00000000       0.52441740
Os       0.00000000       0.00000000       4.21212121       0.00000000       0.00000000      -0.52441740
2
Properties=species:S:1:pos:R:3:forces:R:3 energy=-5.856095910423414 pbc="F F F"
Os       0.00000000       0.00000000       0.00000000       0.00000000       0.00000000       0.48765633
Os       0.00000000       0.00000000       4.27171717       0.00000000       0.00000000      -0.48765633
2
Properties=species:S:1:pos:R:3:forces:R:3 energy=-5.828472929867799 pbc="F F F"
Os       0.00000000       0.00000000       0.00000000       0.00000000       0.00000000       0.43673414
Os       0.00000000       0.00000000       4.33131313       0.00000000       0.00000000      -0.43673414
2
Properties=species:S:1:pos:R:3:forces:R:3 energy=-5.804365922844038 pbc="F F F"
Os       0.00000000       0.00000000       0.00000000       0.00000000       0.00000000       0.36956090
Os       0.00000000       0.00000000       4.39090909       0.00000000       0.00000000      -0.36956090
2
Properties=species:S:1:pos:R:3:forces:R:3 energy=-5.784722688927778 pbc="F F F"
Os       0.00000000       0.00000000       0.00000000       0.00000000       0.00000000       0.28746670
Os       0.00000000       0.00000000       4.45050505       0.00000000       0.00000000      -0.28746670
2
Properties=species:S:1:pos:R:3:forces:R:3 energy=-5.770304058347478 pbc="F F F"
Os       0.00000000       0.00000000       0.00000000       0.00000000       0.00000000       0.19531016
Os       0.00000000       0.00000000       4.51010101       0.00000000       0.00000000      -0.19531016
2
Properties=species:S:1:pos:R:3:forces:R:3 energy=-5.761488281043601 pbc="F F F"
Os       0.00000000       0.00000000       0.00000000       0.00000000       0.00000000       0.10095172
Os       0.00000000       0.00000000       4.56969697       0.00000000       0.00000000      -0.10095172
2
Properties=species:S:1:pos:R:3:forces:R:3 energy=-5.75812180831631 pbc="F F F"
Os       0.00000000       0.00000000       0.00000000       0.00000000       0.00000000       0.01414141
Os       0.00000000       0.00000000       4.62929293       0.00000000       0.00000000      -0.01414141
2
Properties=species:S:1:pos:R:3:forces:R:3 energy=-5.759454256070453 pbc="F F F"
Os       0.00000000       0.00000000       0.00000000       0.00000000       0.00000000      -0.05519215
Os       0.00000000       0.00000000       4.68888889       0.00000000       0.00000000       0.05519215
2
Properties=species:S:1:pos:R:3:forces:R:3 energy=-5.764188008551298 pbc="F F F"
Os       0.00000000       0.00000000       0.00000000       0.00000000       0.00000000      -0.09886953
Os       0.00000000       0.00000000       4.74848485       0.00000000       0.00000000       0.09886953
2
Properties=species:S:1:pos:R:3:forces:R:3 energy=-5.770635362362662 pbc="F F F"
Os       0.00000000       0.00000000       0.00000000       0.00000000       0.00000000      -0.11233765
Os       0.00000000       0.00000000       4.80808081       0.00000000       0.00000000       0.11233765
2
Properties=species:S:1:pos:R:3:forces:R:3 energy=-5.7769851481304295 pbc="F F F"
Os       0.00000000       0.00000000       0.00000000       0.00000000       0.00000000      -0.09616005
Os       0.00000000       0.00000000       4.86767677       0.00000000       0.00000000       0.09616005
2
Properties=species:S:1:pos:R:3:forces:R:3 energy=-5.781630601230246 pbc="F F F"
Os       0.00000000       0.00000000       0.00000000       0.00000000       0.00000000      -0.05668966
Os       0.00000000       0.00000000       4.92727273       0.00000000       0.00000000       0.05668966
2
Properties=species:S:1:pos:R:3:forces:R:3 energy=-5.783506434973216 pbc="F F F"
Os       0.00000000       0.00000000       0.00000000       0.00000000       0.00000000      -0.00546659
Os       0.00000000       0.00000000       4.98686869       0.00000000       0.00000000       0.00546659
2
Properties=species:S:1:pos:R:3:forces:R:3 energy=-5.782334853733487 pbc="F F F"
Os       0.00000000       0.00000000       0.00000000       0.00000000       0.00000000       0.04316209
Os       0.00000000       0.00000000       5.04646465       0.00000000       0.00000000      -0.04316209
2
Properties=species:S:1:pos:R:3:forces:R:3 energy=-5.778673100447725 pbc="F F F"
Os       0.00000000       0.00000000       0.00000000       0.00000000       0.00000000       0.07636021
Os       0.00000000       0.00000000       5.10606061       0.00000000       0.00000000      -0.07636021
2
Properties=species:S:1:pos:R:3:forces:R:3 energy=-5.773666976153826 pbc="F F F"
Os       0.00000000       0.00000000       0.00000000       0.00000000       0.00000000       0.08806658
Os       0.00000000       0.00000000       5.16565657       0.00000000       0.00000000      -0.08806658
2
Properties=species:S:1:pos:R:3:forces:R:3 energy=-5.768521481053226 pbc="F F F"
Os       0.00000000       0.00000000       0.00000000       0.00000000       0.00000000       0.08266708
Os       0.00000000       0.00000000       5.22525253       0.00000000       0.00000000      -0.08266708
2
Properties=species:S:1:pos:R:3:forces:R:3 energy=-5.763910908341498 pbc="F F F"
Os       0.00000000       0.00000000       0.00000000       0.00000000       0.00000000       0.07221773
Os       0.00000000       0.00000000       5.28484848       0.00000000       0.00000000      -0.07221773
2
Properties=species:S:1:pos:R:3:forces:R:3 energy=-5.759877814919427 pbc="F F F"
Os       0.00000000       0.00000000       0.00000000       0.00000000       0.00000000       0.06266496
Os       0.00000000       0.00000000       5.34444444       0.00000000       0.00000000      -0.06266496
2
Properties=species:S:1:pos:R:3:forces:R:3 energy=-5.756751824824339 pbc="F F F"
Os       0.00000000       0.00000000       0.00000000       0.00000000       0.00000000       0.03716349
Os       0.00000000       0.00000000       5.40404040       0.00000000       0.00000000      -0.03716349
2
Properties=species:S:1:pos:R:3:forces:R:3 energy=-5.756141987544944 pbc="F F F"
Os       0.00000000       0.00000000       0.00000000       0.00000000       0.00000000      -0.02055422
Os       0.00000000       0.00000000       5.46363636       0.00000000       0.00000000       0.02055422
2
Properties=species:S:1:pos:R:3:forces:R:3 energy=-5.7590222625759475 pbc="F F F"
Os       0.00000000       0.00000000       0.00000000       0.00000000       0.00000000      -0.06952541
Os       0.00000000       0.00000000       5.52323232       0.00000000       0.00000000       0.06952541
2
Properties=species:S:1:pos:R:3:forces:R:3 energy=-5.763481385057112 pbc="F F F"
Os       0.00000000       0.00000000       0.00000000       0.00000000       0.00000000      -0.07384129
Os       0.00000000       0.00000000       5.58282828       0.00000000       0.00000000       0.07384129
2
Properties=species:S:1:pos:R:3:forces:R:3 energy=-5.767521392960443 pbc="F F F"
Os       0.00000000       0.00000000       0.00000000       0.00000000       0.00000000      -0.06275021
Os       0.00000000       0.00000000       5.64242424       0.00000000       0.00000000       0.06275021
2
Properties=species:S:1:pos:R:3:forces:R:3 energy=-5.7712940994842 pbc="F F F"
Os       0.00000000       0.00000000       0.00000000       0.00000000       0.00000000      -0.06634601
Os       0.00000000       0.00000000       5.70202020       0.00000000       0.00000000       0.06634601
2
Properties=species:S:1:pos:R:3:forces:R:3 energy=-5.775346798060491 pbc="F F F"
Os       0.00000000       0.00000000       0.00000000       0.00000000       0.00000000      -0.06516547
Os       0.00000000       0.00000000       5.76161616       0.00000000       0.00000000       0.06516547
2
Properties=species:S:1:pos:R:3:forces:R:3 energy=-5.7783411050686535 pbc="F F F"
Os       0.00000000       0.00000000       0.00000000       0.00000000       0.00000000      -0.03116667
Os       0.00000000       0.00000000       5.82121212       0.00000000       0.00000000       0.03116667
2
Properties=species:S:1:pos:R:3:forces:R:3 energy=-5.779112493965347 pbc="F F F"
Os       0.00000000       0.00000000       0.00000000       0.00000000       0.00000000       0.00126800
Os       0.00000000       0.00000000       5.88080808       0.00000000       0.00000000      -0.00126800
2
Properties=species:S:1:pos:R:3:forces:R:3 energy=-5.778670609740201 pbc="F F F"
Os       0.00000000       0.00000000       0.00000000       0.00000000       0.00000000       0.01076375
Os       0.00000000       0.00000000       5.94040404       0.00000000       0.00000000      -0.01076375
2
Properties=species:S:1:pos:R:3:forces:R:3 energy=-5.777999216711681 pbc="F F F"
Os       0.00000000       0.00000000       0.00000000       0.00000000       0.00000000       0.01128462
Os       0.00000000       0.00000000       6.00000000       0.00000000       0.00000000      -0.01128462
