2
Properties=species:S:1:pos:R:3:forces:R:3 energy=106852.07248707238 pbc="F F F"
Pa       0.00000000       0.00000000       0.00000000       0.00000000       0.00000000 -2759670.00000000
Pa       0.00000000       0.00000000       0.10000000       0.00000000       0.00000000 2759670.00000000
2
Properties=species:S:1:pos:R:3:forces:R:3 energy=28549.285377697375 pbc="F F F"
Pa       0.00000000       0.00000000       0.00000000       0.00000000       0.00000000 -551731.43750000
Pa       0.00000000       0.00000000       0.15959596       0.00000000       0.00000000  551731.43750000
2
Properties=species:S:1:pos:R:3:forces:R:3 energy=10021.375221447375 pbc="F F F"
Pa       0.00000000       0.00000000       0.00000000       0.00000000       0.00000000 -161633.00000000
Pa       0.00000000       0.00000000       0.21919192       0.00000000       0.00000000  161633.00000000
2
Properties=species:S:1:pos:R:3:forces:R:3 energy=4074.906715588 pbc="F F F"
Pa       0.00000000       0.00000000       0.00000000       0.00000000       0.00000000  -57842.17968750
Pa       0.00000000       0.00000000       0.27878788       0.00000000       0.00000000   57842.17968750
2
Properties=species:S:1:pos:R:3:forces:R:3 energy=1828.2182390381718 pbc="F F F"
Pa       0.00000000       0.00000000       0.00000000       0.00000000       0.00000000  -23314.16601562
Pa       0.00000000       0.00000000       0.33838384       0.00000000       0.00000000   23314.16601562
2
Properties=species:S:1:pos:R:3:forces:R:3 energy=887.8260271241093 pbc="F F F"
Pa       0.00000000       0.00000000       0.00000000       0.00000000       0.00000000  -10217.99121094
Pa       0.00000000       0.00000000       0.39797980       0.00000000       0.00000000   10217.99121094
2
Properties=species:S:1:pos:R:3:forces:R:3 energy=462.95645926568676 pbc="F F F"
Pa       0.00000000       0.00000000       0.00000000       0.00000000       0.00000000   -4792.56640625
Pa       0.00000000       0.00000000       0.45757576       0.00000000       0.00000000    4792.56640625
2
Properties=species:S:1:pos:R:3:forces:R:3 energy=258.324135059608 pbc="F F F"
Pa       0.00000000       0.00000000       0.00000000       0.00000000       0.00000000   -2384.24243164
Pa       0.00000000       0.00000000       0.51717172       0.00000000       0.00000000    2384.24243164
2
Properties=species:S:1:pos:R:3:forces:R:3 energy=154.0867998672012 pbc="F F F"
Pa       0.00000000       0.00000000       0.00000000       0.00000000       0.00000000   -1249.42004395
Pa       0.00000000       0.00000000       0.57676768       0.00000000       0.00000000    1249.42004395
2
Properties=species:S:1:pos:R:3:forces:R:3 energy=98.30488614789084 pbc="F F F"
Pa       0.00000000       0.00000000       0.00000000       0.00000000       0.00000000    -685.35949707
Pa       0.00000000       0.00000000       0.63636364       0.00000000       0.00000000     685.35949707
2
Properties=species:S:1:pos:R:3:forces:R:3 energy=67.12912022003636 pbc="F F F"
Pa       0.00000000       0.00000000       0.00000000       0.00000000       0.00000000    -391.51412964
Pa       0.00000000       0.00000000       0.69595960       0.00000000       0.00000000     391.51412964
2
Properties=species:S:1:pos:R:3:forces:R:3 energy=49.00776715932131 pbc="F F F"
Pa       0.00000000       0.00000000       0.00000000       0.00000000       0.00000000    -232.33587646
Pa       0.00000000       0.00000000       0.75555556       0.00000000       0.00000000     232.33587646
2
Properties=species:S:1:pos:R:3:forces:R:3 energy=38.057968714721106 pbc="F F F"
Pa       0.00000000       0.00000000       0.00000000       0.00000000       0.00000000    -143.55586243
Pa       0.00000000       0.00000000       0.81515152       0.00000000       0.00000000     143.55586243
2
Properties=species:S:1:pos:R:3:forces:R:3 energy=31.14398269873575 pbc="F F F"
Pa       0.00000000       0.00000000       0.00000000       0.00000000       0.00000000     -93.16193390
Pa       0.00000000       0.00000000       0.87474747       0.00000000       0.00000000      93.16193390
2
Properties=species:S:1:pos:R:3:forces:R:3 energy=26.52876766331914 pbc="F F F"
Pa       0.00000000       0.00000000       0.00000000       0.00000000       0.00000000     -64.40433502
Pa       0.00000000       0.00000000       0.93434343       0.00000000       0.00000000      64.40433502
2
Properties=species:S:1:pos:R:3:forces:R:3 energy=23.22105168650018 pbc="F F F"
Pa       0.00000000       0.00000000       0.00000000       0.00000000       0.00000000     -48.17649078
Pa       0.00000000       0.00000000       0.99393939       0.00000000       0.00000000      48.17649078
2
Properties=species:S:1:pos:R:3:forces:R:3 energy=20.641328835197427 pbc="F F F"
Pa       0.00000000       0.00000000       0.00000000       0.00000000       0.00000000     -39.31785965
Pa       0.00000000       0.00000000       1.05353535       0.00000000       0.00000000      39.31785965
2
Properties=species:S:1:pos:R:3:forces:R:3 energy=18.45381044596068 pbc="F F F"
Pa       0.00000000       0.00000000       0.00000000       0.00000000       0.00000000     -34.56962585
Pa       0.00000000       0.00000000       1.11313131       0.00000000       0.00000000      34.56962585
2
Properties=species:S:1:pos:R:3:forces:R:3 energy=16.48007554896729 pbc="F F F"
Pa       0.00000000       0.00000000       0.00000000       0.00000000       0.00000000     -31.90622902
Pa       0.00000000       0.00000000       1.17272727       0.00000000       0.00000000      31.90622902
2
Properties=species:S:1:pos:R:3:forces:R:3 energy=14.638154921061679 pbc="F F F"
Pa       0.00000000       0.00000000       0.00000000       0.00000000       0.00000000     -29.86016273
Pa       0.00000000       0.00000000       1.23232323       0.00000000       0.00000000      29.86016273
2
Properties=species:S:1:pos:R:3:forces:R:3 energy=12.919709710048927 pbc="F F F"
Pa       0.00000000       0.00000000       0.00000000       0.00000000       0.00000000     -28.07605553
Pa       0.00000000       0.00000000       1.29191919       0.00000000       0.00000000      28.07605553
2
Properties=species:S:1:pos:R:3:forces:R:3 energy=11.232285056335867 pbc="F F F"
Pa       0.00000000       0.00000000       0.00000000       0.00000000       0.00000000     -29.08439064
Pa       0.00000000       0.00000000       1.35151515       0.00000000       0.00000000      29.08439064
2
Properties=species:S:1:pos:R:3:forces:R:3 energy=9.419399331105211 pbc="F F F"
Pa       0.00000000       0.00000000       0.00000000       0.00000000       0.00000000     -31.73932838
Pa       0.00000000       0.00000000       1.41111111       0.00000000       0.00000000      31.73932838
2
Properties=species:S:1:pos:R:3:forces:R:3 energy=7.470052943490548 pbc="F F F"
Pa       0.00000000       0.00000000       0.00000000       0.00000000       0.00000000     -33.47267914
Pa       0.00000000       0.00000000       1.47070707       0.00000000       0.00000000      33.47267914
2
Properties=species:S:1:pos:R:3:forces:R:3 energy=5.44738973769705 pbc="F F F"
Pa       0.00000000       0.00000000       0.00000000       0.00000000       0.00000000     -34.31770325
Pa       0.00000000       0.00000000       1.53030303       0.00000000       0.00000000      34.31770325
2
Properties=species:S:1:pos:R:3:forces:R:3 energy=3.3878196953265194 pbc="F F F"
Pa       0.00000000       0.00000000       0.00000000       0.00000000       0.00000000     -34.71829605
Pa       0.00000000       0.00000000       1.58989899       0.00000000       0.00000000      34.71829605
2
Properties=species:S:1:pos:R:3:forces:R:3 energy=1.3248546070757763 pbc="F F F"
Pa       0.00000000       0.00000000       0.00000000       0.00000000       0.00000000     -34.31293488
Pa       0.00000000       0.00000000       1.64949495       0.00000000       0.00000000      34.31293488
2
Properties=species:S:1:pos:R:3:forces:R:3 energy=-0.6681570532181504 pbc="F F F"
Pa       0.00000000       0.00000000       0.00000000       0.00000000       0.00000000     -32.23077011
Pa       0.00000000       0.00000000       1.70909091       0.00000000       0.00000000      32.23077011
2
Properties=species:S:1:pos:R:3:forces:R:3 energy=-2.480769131899896 pbc="F F F"
Pa       0.00000000       0.00000000       0.00000000       0.00000000       0.00000000     -28.38080978
Pa       0.00000000       0.00000000       1.76868687       0.00000000       0.00000000      28.38080978
2
Properties=species:S:1:pos:R:3:forces:R:3 energy=-4.03434046308109 pbc="F F F"
Pa       0.00000000       0.00000000       0.00000000       0.00000000       0.00000000     -23.68382072
Pa       0.00000000       0.00000000       1.82828283       0.00000000       0.00000000      23.68382072
2
Properties=species:S:1:pos:R:3:forces:R:3 energy=-5.304833909028099 pbc="F F F"
Pa       0.00000000       0.00000000       0.00000000       0.00000000       0.00000000     -19.06115913
Pa       0.00000000       0.00000000       1.88787879       0.00000000       0.00000000      19.06115913
2
Properties=species:S:1:pos:R:3:forces:R:3 energy=-6.329801798782413 pbc="F F F"
Pa       0.00000000       0.00000000       0.00000000       0.00000000       0.00000000     -15.59100628
Pa       0.00000000       0.00000000       1.94747475       0.00000000       0.00000000      15.59100628
2
Properties=species:S:1:pos:R:3:forces:R:3 energy=-7.193064622745266 pbc="F F F"
Pa       0.00000000       0.00000000       0.00000000       0.00000000       0.00000000     -13.58943367
Pa       0.00000000       0.00000000       2.00707071       0.00000000       0.00000000      13.58943367
2
Properties=species:S:1:pos:R:3:forces:R:3 energy=-7.965414713810174 pbc="F F F"
Pa       0.00000000       0.00000000       0.00000000       0.00000000       0.00000000     -12.37756348
Pa       0.00000000       0.00000000       2.06666667       0.00000000       0.00000000      12.37756348
2
Properties=species:S:1:pos:R:3:forces:R:3 energy=-8.664943357786576 pbc="F F F"
Pa       0.00000000       0.00000000       0.00000000       0.00000000       0.00000000     -11.01114941
Pa       0.00000000       0.00000000       2.12626263       0.00000000       0.00000000      11.01114941
2
Properties=species:S:1:pos:R:3:forces:R:3 energy=-9.26474936824192 pbc="F F F"
Pa       0.00000000       0.00000000       0.00000000       0.00000000       0.00000000      -9.00862026
Pa       0.00000000       0.00000000       2.18585859       0.00000000       0.00000000       9.00862026
2
Properties=species:S:1:pos:R:3:forces:R:3 energy=-9.728801506990385 pbc="F F F"
Pa       0.00000000       0.00000000       0.00000000       0.00000000       0.00000000      -6.51674414
Pa       0.00000000       0.00000000       2.24545455       0.00000000       0.00000000       6.51674414
2
Properties=species:S:1:pos:R:3:forces:R:3 energy=-10.040251606021636 pbc="F F F"
Pa       0.00000000       0.00000000       0.00000000       0.00000000       0.00000000      -3.95860434
Pa       0.00000000       0.00000000       2.30505051       0.00000000       0.00000000       3.95860434
2
Properties=species:S:1:pos:R:3:forces:R:3 energy=-10.206308847617144 pbc="F F F"
Pa       0.00000000       0.00000000       0.00000000       0.00000000       0.00000000      -1.67933965
Pa       0.00000000       0.00000000       2.36464646       0.00000000       0.00000000       1.67933965
2
Properties=species:S:1:pos:R:3:forces:R:3 energy=-10.249195167818533 pbc="F F F"
Pa       0.00000000       0.00000000       0.00000000       0.00000000       0.00000000       0.16272497
Pa       0.00000000       0.00000000       2.42424242       0.00000000       0.00000000      -0.16272497
2
Properties=species:S:1:pos:R:3:forces:R:3 energy=-10.196015175783247 pbc="F F F"
Pa       0.00000000       0.00000000       0.00000000       0.00000000       0.00000000       1.54850399
Pa       0.00000000       0.00000000       2.48383838       0.00000000       0.00000000      -1.54850399
2
Properties=species:S:1:pos:R:3:forces:R:3 energy=-10.0728415923871 pbc="F F F"
Pa       0.00000000       0.00000000       0.00000000       0.00000000       0.00000000       2.52119875
Pa       0.00000000       0.00000000       2.54343434       0.00000000       0.00000000      -2.52119875
2
Properties=species:S:1:pos:R:3:forces:R:3 energy=-9.902482559265374 pbc="F F F"
Pa       0.00000000       0.00000000       0.00000000       0.00000000       0.00000000       3.14328599
Pa       0.00000000       0.00000000       2.60303030       0.00000000       0.00000000      -3.14328599
2
Properties=species:S:1:pos:R:3:forces:R:3 energy=-9.703705499974745 pbc="F F F"
Pa       0.00000000       0.00000000       0.00000000       0.00000000       0.00000000       3.48797297
Pa       0.00000000       0.00000000       2.66262626       0.00000000       0.00000000      -3.48797297
2
Properties=species:S:1:pos:R:3:forces:R:3 energy=-9.490605698896793 pbc="F F F"
Pa       0.00000000       0.00000000       0.00000000       0.00000000       0.00000000       3.63829541
Pa       0.00000000       0.00000000       2.72222222       0.00000000       0.00000000      -3.63829541
2
Properties=species:S:1:pos:R:3:forces:R:3 energy=-9.272236326288391 pbc="F F F"
Pa       0.00000000       0.00000000       0.00000000       0.00000000       0.00000000       3.67804646
Pa       0.00000000       0.00000000       2.78181818       0.00000000       0.00000000      -3.67804646
2
Properties=species:S:1:pos:R:3:forces:R:3 energy=-9.053002993351638 pbc="F F F"
Pa       0.00000000       0.00000000       0.00000000       0.00000000       0.00000000       3.67708921
Pa       0.00000000       0.00000000       2.84141414       0.00000000       0.00000000      -3.67708921
2
Properties=species:S:1:pos:R:3:forces:R:3 energy=-8.833850705962744 pbc="F F F"
Pa       0.00000000       0.00000000       0.00000000       0.00000000       0.00000000       3.68056154
Pa       0.00000000       0.00000000       2.90101010       0.00000000       0.00000000      -3.68056154
2
Properties=species:S:1:pos:R:3:forces:R:3 energy=-8.613836806400961 pbc="F F F"
Pa       0.00000000       0.00000000       0.00000000       0.00000000       0.00000000       3.70711684
Pa       0.00000000       0.00000000       2.96060606       0.00000000       0.00000000      -3.70711684
2
Properties=species:S:1:pos:R:3:forces:R:3 energy=-8.391573106313027 pbc="F F F"
Pa       0.00000000       0.00000000       0.00000000       0.00000000       0.00000000       3.75430346
Pa       0.00000000       0.00000000       3.02020202       0.00000000       0.00000000      -3.75430346
2
Properties=species:S:1:pos:R:3:forces:R:3 energy=-8.166245681339616 pbc="F F F"
Pa       0.00000000       0.00000000       0.00000000       0.00000000       0.00000000       3.80690098
Pa       0.00000000       0.00000000       3.07979798       0.00000000       0.00000000      -3.80690098
2
Properties=species:S:1:pos:R:3:forces:R:3 energy=-7.93807219129212 pbc="F F F"
Pa       0.00000000       0.00000000       0.00000000       0.00000000       0.00000000       3.84718728
Pa       0.00000000       0.00000000       3.13939394       0.00000000       0.00000000      -3.84718728
2
Properties=species:S:1:pos:R:3:forces:R:3 energy=-7.708125754515034 pbc="F F F"
Pa       0.00000000       0.00000000       0.00000000       0.00000000       0.00000000       3.86623597
Pa       0.00000000       0.00000000       3.19898990       0.00000000       0.00000000      -3.86623597
2
Properties=species:S:1:pos:R:3:forces:R:3 energy=-7.477564074927378 pbc="F F F"
Pa       0.00000000       0.00000000       0.00000000       0.00000000       0.00000000       3.86974335
Pa       0.00000000       0.00000000       3.25858586       0.00000000       0.00000000      -3.86974335
2
Properties=species:S:1:pos:R:3:forces:R:3 energy=-7.246914553752756 pbc="F F F"
Pa       0.00000000       0.00000000       0.00000000       0.00000000       0.00000000       3.87124777
Pa       0.00000000       0.00000000       3.31818182       0.00000000       0.00000000      -3.87124777
2
Properties=species:S:1:pos:R:3:forces:R:3 energy=-7.016050194235678 pbc="F F F"
Pa       0.00000000       0.00000000       0.00000000       0.00000000       0.00000000       3.87680244
Pa       0.00000000       0.00000000       3.37777778       0.00000000       0.00000000      -3.87680244
2
Properties=species:S:1:pos:R:3:forces:R:3 energy=-6.78498389830553 pbc="F F F"
Pa       0.00000000       0.00000000       0.00000000       0.00000000       0.00000000       3.87424135
Pa       0.00000000       0.00000000       3.43737374       0.00000000       0.00000000      -3.87424135
2
Properties=species:S:1:pos:R:3:forces:R:3 energy=-6.554978535481386 pbc="F F F"
Pa       0.00000000       0.00000000       0.00000000       0.00000000       0.00000000       3.83591986
Pa       0.00000000       0.00000000       3.49696970       0.00000000       0.00000000      -3.83591986
2
Properties=species:S:1:pos:R:3:forces:R:3 energy=-6.329081987505573 pbc="F F F"
Pa       0.00000000       0.00000000       0.00000000       0.00000000       0.00000000       3.73202157
Pa       0.00000000       0.00000000       3.55656566       0.00000000       0.00000000      -3.73202157
2
Properties=species:S:1:pos:R:3:forces:R:3 energy=-6.111839868963045 pbc="F F F"
Pa       0.00000000       0.00000000       0.00000000       0.00000000       0.00000000       3.54368973
Pa       0.00000000       0.00000000       3.61616162       0.00000000       0.00000000      -3.54368973
2
Properties=species:S:1:pos:R:3:forces:R:3 energy=-5.908440469557708 pbc="F F F"
Pa       0.00000000       0.00000000       0.00000000       0.00000000       0.00000000       3.26848841
Pa       0.00000000       0.00000000       3.67575758       0.00000000       0.00000000      -3.26848841
2
Properties=species:S:1:pos:R:3:forces:R:3 energy=-5.723739297342192 pbc="F F F"
Pa       0.00000000       0.00000000       0.00000000       0.00000000       0.00000000       2.91940475
Pa       0.00000000       0.00000000       3.73535354       0.00000000       0.00000000      -2.91940475
2
Properties=species:S:1:pos:R:3:forces:R:3 energy=-5.561451577997115 pbc="F F F"
Pa       0.00000000       0.00000000       0.00000000       0.00000000       0.00000000       2.52120638
Pa       0.00000000       0.00000000       3.79494949       0.00000000       0.00000000      -2.52120638
2
Properties=species:S:1:pos:R:3:forces:R:3 energy=-5.423582147659196 pbc="F F F"
Pa       0.00000000       0.00000000       0.00000000       0.00000000       0.00000000       2.10539293
Pa       0.00000000       0.00000000       3.85454545       0.00000000       0.00000000      -2.10539293
2
Properties=species:S:1:pos:R:3:forces:R:3 energy=-5.310205078126436 pbc="F F F"
Pa       0.00000000       0.00000000       0.00000000       0.00000000       0.00000000       1.70460534
Pa       0.00000000       0.00000000       3.91414141       0.00000000       0.00000000      -1.70460534
2
Properties=species:S:1:pos:R:3:forces:R:3 energy=-5.219529531071103 pbc="F F F"
Pa       0.00000000       0.00000000       0.00000000       0.00000000       0.00000000       1.34772515
Pa       0.00000000       0.00000000       3.97373737       0.00000000       0.00000000      -1.34772515
2
Properties=species:S:1:pos:R:3:forces:R:3 energy=-5.148264074299889 pbc="F F F"
Pa       0.00000000       0.00000000       0.00000000       0.00000000       0.00000000       1.05600798
Pa       0.00000000       0.00000000       4.03333333       0.00000000       0.00000000      -1.05600798
2
Properties=species:S:1:pos:R:3:forces:R:3 energy=-5.092147979718455 pbc="F F F"
Pa       0.00000000       0.00000000       0.00000000       0.00000000       0.00000000       0.84015828
Pa       0.00000000       0.00000000       4.09292929       0.00000000       0.00000000      -0.84015828
2
Properties=species:S:1:pos:R:3:forces:R:3 energy=-5.0466139509536045 pbc="F F F"
Pa       0.00000000       0.00000000       0.00000000       0.00000000       0.00000000       0.70005095
Pa       0.00000000       0.00000000       4.15252525       0.00000000       0.00000000      -0.70005095
2
Properties=species:S:1:pos:R:3:forces:R:3 energy=-5.007365687193464 pbc="F F F"
Pa       0.00000000       0.00000000       0.00000000       0.00000000       0.00000000       0.62735605
Pa       0.00000000       0.00000000       4.21212121       0.00000000       0.00000000      -0.62735605
2
Properties=species:S:1:pos:R:3:forces:R:3 energy=-4.970752696200761 pbc="F F F"
Pa       0.00000000       0.00000000       0.00000000       0.00000000       0.00000000       0.60923439
Pa       0.00000000       0.00000000       4.27171717       0.00000000       0.00000000      -0.60923439
2
Properties=species:S:1:pos:R:3:forces:R:3 energy=-4.933959617671568 pbc="F F F"
Pa       0.00000000       0.00000000       0.00000000       0.00000000       0.00000000       0.63085532
Pa       0.00000000       0.00000000       4.33131313       0.00000000       0.00000000      -0.63085532
2
Properties=species:S:1:pos:R:3:forces:R:3 energy=-4.895081690219179 pbc="F F F"
Pa       0.00000000       0.00000000       0.00000000       0.00000000       0.00000000       0.67657340
Pa       0.00000000       0.00000000       4.39090909       0.00000000       0.00000000      -0.67657340
2
Properties=species:S:1:pos:R:3:forces:R:3 energy=-4.853146578177439 pbc="F F F"
Pa       0.00000000       0.00000000       0.00000000       0.00000000       0.00000000       0.73092079
Pa       0.00000000       0.00000000       4.45050505       0.00000000       0.00000000      -0.73092079
2
Properties=species:S:1:pos:R:3:forces:R:3 energy=-4.808065504463576 pbc="F F F"
Pa       0.00000000       0.00000000       0.00000000       0.00000000       0.00000000       0.78015077
Pa       0.00000000       0.00000000       4.51010101       0.00000000       0.00000000      -0.78015077
2
Properties=species:S:1:pos:R:3:forces:R:3 energy=-4.760468564360575 pbc="F F F"
Pa       0.00000000       0.00000000       0.00000000       0.00000000       0.00000000       0.81393665
Pa       0.00000000       0.00000000       4.56969697       0.00000000       0.00000000      -0.81393665
2
Properties=species:S:1:pos:R:3:forces:R:3 energy=-4.711474653924256 pbc="F F F"
Pa       0.00000000       0.00000000       0.00000000       0.00000000       0.00000000       0.82650590
Pa       0.00000000       0.00000000       4.62929293       0.00000000       0.00000000      -0.82650590
2
Properties=species:S:1:pos:R:3:forces:R:3 energy=-4.662400993790549 pbc="F F F"
Pa       0.00000000       0.00000000       0.00000000       0.00000000       0.00000000       0.81690401
Pa       0.00000000       0.00000000       4.68888889       0.00000000       0.00000000      -0.81690401
2
Properties=species:S:1:pos:R:3:forces:R:3 energy=-4.614483333469584 pbc="F F F"
Pa       0.00000000       0.00000000       0.00000000       0.00000000       0.00000000       0.78843814
Pa       0.00000000       0.00000000       4.74848485       0.00000000       0.00000000      -0.78843814
2
Properties=species:S:1:pos:R:3:forces:R:3 energy=-4.568675139545641 pbc="F F F"
Pa       0.00000000       0.00000000       0.00000000       0.00000000       0.00000000       0.74740553
Pa       0.00000000       0.00000000       4.80808081       0.00000000       0.00000000      -0.74740553
2
Properties=species:S:1:pos:R:3:forces:R:3 energy=-4.5254970608549785 pbc="F F F"
Pa       0.00000000       0.00000000       0.00000000       0.00000000       0.00000000       0.70136309
Pa       0.00000000       0.00000000       4.86767677       0.00000000       0.00000000      -0.70136309
2
Properties=species:S:1:pos:R:3:forces:R:3 energy=-4.48504306401245 pbc="F F F"
Pa       0.00000000       0.00000000       0.00000000       0.00000000       0.00000000       0.65691078
Pa       0.00000000       0.00000000       4.92727273       0.00000000       0.00000000      -0.65691078
2
Properties=species:S:1:pos:R:3:forces:R:3 energy=-4.447092973316479 pbc="F F F"
Pa       0.00000000       0.00000000       0.00000000       0.00000000       0.00000000       0.61761230
Pa       0.00000000       0.00000000       4.98686869       0.00000000       0.00000000      -0.61761230
2
Properties=species:S:1:pos:R:3:forces:R:3 energy=-4.411341880107311 pbc="F F F"
Pa       0.00000000       0.00000000       0.00000000       0.00000000       0.00000000       0.58273512
Pa       0.00000000       0.00000000       5.04646465       0.00000000       0.00000000      -0.58273512
2
Properties=species:S:1:pos:R:3:forces:R:3 energy=-4.377644639851934 pbc="F F F"
Pa       0.00000000       0.00000000       0.00000000       0.00000000       0.00000000       0.54745972
Pa       0.00000000       0.00000000       5.10606061       0.00000000       0.00000000      -0.54745972
2
Properties=species:S:1:pos:R:3:forces:R:3 energy=-4.346232413234696 pbc="F F F"
Pa       0.00000000       0.00000000       0.00000000       0.00000000       0.00000000       0.50470513
Pa       0.00000000       0.00000000       5.16565657       0.00000000       0.00000000      -0.50470513
2
Properties=species:S:1:pos:R:3:forces:R:3 energy=-4.317765086566488 pbc="F F F"
Pa       0.00000000       0.00000000       0.00000000       0.00000000       0.00000000       0.44798994
Pa       0.00000000       0.00000000       5.22525253       0.00000000       0.00000000      -0.44798994
2
Properties=species:S:1:pos:R:3:forces:R:3 energy=-4.293141332204672 pbc="F F F"
Pa       0.00000000       0.00000000       0.00000000       0.00000000       0.00000000       0.37655398
Pa       0.00000000       0.00000000       5.28484848       0.00000000       0.00000000      -0.37655398
2
Properties=species:S:1:pos:R:3:forces:R:3 energy=-4.272880690952492 pbc="F F F"
Pa       0.00000000       0.00000000       0.00000000       0.00000000       0.00000000       0.30616534
Pa       0.00000000       0.00000000       5.34444444       0.00000000       0.00000000      -0.30616534
2
Properties=species:S:1:pos:R:3:forces:R:3 energy=-4.25588410122251 pbc="F F F"
Pa       0.00000000       0.00000000       0.00000000       0.00000000       0.00000000       0.27365813
Pa       0.00000000       0.00000000       5.40404040       0.00000000       0.00000000      -0.27365813
2
Properties=species:S:1:pos:R:3:forces:R:3 energy=-4.239175446961212 pbc="F F F"
Pa       0.00000000       0.00000000       0.00000000       0.00000000       0.00000000       0.29228160
Pa       0.00000000       0.00000000       5.46363636       0.00000000       0.00000000      -0.29228160
2
Properties=species:S:1:pos:R:3:forces:R:3 energy=-4.221240702548089 pbc="F F F"
Pa       0.00000000       0.00000000       0.00000000       0.00000000       0.00000000       0.30253249
Pa       0.00000000       0.00000000       5.52323232       0.00000000       0.00000000      -0.30253249
2
Properties=species:S:1:pos:R:3:forces:R:3 energy=-4.204058794923712 pbc="F F F"
Pa       0.00000000       0.00000000       0.00000000       0.00000000       0.00000000       0.26931158
Pa       0.00000000       0.00000000       5.58282828       0.00000000       0.00000000      -0.26931158
2
Properties=species:S:1:pos:R:3:forces:R:3 energy=-4.188991484361761 pbc="F F F"
Pa       0.00000000       0.00000000       0.00000000       0.00000000       0.00000000       0.24356736
Pa       0.00000000       0.00000000       5.64242424       0.00000000       0.00000000      -0.24356736
2
Properties=species:S:1:pos:R:3:forces:R:3 energy=-4.173782716931476 pbc="F F F"
Pa       0.00000000       0.00000000       0.00000000       0.00000000       0.00000000       0.27623627
Pa       0.00000000       0.00000000       5.70202020       0.00000000       0.00000000      -0.27623627
2
Properties=species:S:1:pos:R:3:forces:R:3 energy=-4.155845819489067 pbc="F F F"
Pa       0.00000000       0.00000000       0.00000000       0.00000000       0.00000000       0.31787223
Pa       0.00000000       0.00000000       5.76161616       0.00000000       0.00000000      -0.31787223
2
Properties=species:S:1:pos:R:3:forces:R:3 energy=-4.137751260140362 pbc="F F F"
Pa       0.00000000       0.00000000       0.00000000       0.00000000       0.00000000       0.27209058
Pa       0.00000000       0.00000000       5.82121212       0.00000000       0.00000000      -0.27209058
2
Properties=species:S:1:pos:R:3:forces:R:3 energy=-4.124731886914251 pbc="F F F"
Pa       0.00000000       0.00000000       0.00000000       0.00000000       0.00000000       0.16293749
Pa       0.00000000       0.00000000       5.88080808       0.00000000       0.00000000      -0.16293749
2
Properties=species:S:1:pos:R:3:forces:R:3 energy=-4.117964152819421 pbc="F F F"
Pa       0.00000000       0.00000000       0.00000000       0.00000000       0.00000000       0.06962819
Pa       0.00000000       0.00000000       5.94040404       0.00000000       0.00000000      -0.06962819
2
Properties=species:S:1:pos:R:3:forces:R:3 energy=-4.1152347310237065 pbc="F F F"
Pa       0.00000000       0.00000000       0.00000000       0.00000000       0.00000000       0.03397926
Pa       0.00000000       0.00000000       6.00000000       0.00000000       0.00000000      -0.03397926
