2
Properties=species:S:1:pos:R:3:forces:R:3 energy=57654.73665641289 pbc="F F F"
Pm       0.00000000       0.00000000       0.00000000       0.00000000       0.00000000 -1423415.25000000
Pm       0.00000000       0.00000000       0.10000000       0.00000000       0.00000000 1423415.25000000
2
Properties=species:S:1:pos:R:3:forces:R:3 energy=16329.74056266289 pbc="F F F"
Pm       0.00000000       0.00000000       0.00000000       0.00000000       0.00000000 -301127.43750000
Pm       0.00000000       0.00000000       0.15959596       0.00000000       0.00000000  301127.43750000
2
Properties=species:S:1:pos:R:3:forces:R:3 energy=6033.06380485039 pbc="F F F"
Pm       0.00000000       0.00000000       0.00000000       0.00000000       0.00000000  -92241.07031250
Pm       0.00000000       0.00000000       0.21919192       0.00000000       0.00000000   92241.07031250
2
Properties=species:S:1:pos:R:3:forces:R:3 energy=2574.3897325847647 pbc="F F F"
Pm       0.00000000       0.00000000       0.00000000       0.00000000       0.00000000  -34566.87500000
Pm       0.00000000       0.00000000       0.27878788       0.00000000       0.00000000   34566.87500000
2
Properties=species:S:1:pos:R:3:forces:R:3 energy=1204.3595812175774 pbc="F F F"
Pm       0.00000000       0.00000000       0.00000000       0.00000000       0.00000000  -14604.53320312
Pm       0.00000000       0.00000000       0.33838384       0.00000000       0.00000000   14604.53320312
2
Properties=species:S:1:pos:R:3:forces:R:3 energy=603.7085802410149 pbc="F F F"
Pm       0.00000000       0.00000000       0.00000000       0.00000000       0.00000000   -6688.08496094
Pm       0.00000000       0.00000000       0.39797980       0.00000000       0.00000000    6688.08496094
2
Properties=species:S:1:pos:R:3:forces:R:3 energy=320.7802355271237 pbc="F F F"
Pm       0.00000000       0.00000000       0.00000000       0.00000000       0.00000000   -3258.63720703
Pm       0.00000000       0.00000000       0.45757576       0.00000000       0.00000000    3258.63720703
2
Properties=species:S:1:pos:R:3:forces:R:3 energy=179.5888598073731 pbc="F F F"
Pm       0.00000000       0.00000000       0.00000000       0.00000000       0.00000000   -1673.91491699
Pm       0.00000000       0.00000000       0.51717172       0.00000000       0.00000000    1673.91491699
2
Properties=species:S:1:pos:R:3:forces:R:3 energy=105.46883419795006 pbc="F F F"
Pm       0.00000000       0.00000000       0.00000000       0.00000000       0.00000000    -902.06610107
Pm       0.00000000       0.00000000       0.57676768       0.00000000       0.00000000     902.06610107
2
Properties=species:S:1:pos:R:3:forces:R:3 energy=64.69903596982662 pbc="F F F"
Pm       0.00000000       0.00000000       0.00000000       0.00000000       0.00000000    -508.55975342
Pm       0.00000000       0.00000000       0.63636364       0.00000000       0.00000000     508.55975342
2
Properties=species:S:1:pos:R:3:forces:R:3 energy=41.246597678690875 pbc="F F F"
Pm       0.00000000       0.00000000       0.00000000       0.00000000       0.00000000    -299.73831177
Pm       0.00000000       0.00000000       0.69595960       0.00000000       0.00000000     299.73831177
2
Properties=species:S:1:pos:R:3:forces:R:3 energy=27.130064513313524 pbc="F F F"
Pm       0.00000000       0.00000000       0.00000000       0.00000000       0.00000000    -185.10263062
Pm       0.00000000       0.00000000       0.75555556       0.00000000       0.00000000     185.10263062
2
Properties=species:S:1:pos:R:3:forces:R:3 energy=18.20368261322094 pbc="F F F"
Pm       0.00000000       0.00000000       0.00000000       0.00000000       0.00000000    -120.48193359
Pm       0.00000000       0.00000000       0.81515152       0.00000000       0.00000000     120.48193359
2
Properties=species:S:1:pos:R:3:forces:R:3 energy=12.229601801875425 pbc="F F F"
Pm       0.00000000       0.00000000       0.00000000       0.00000000       0.00000000     -83.37187958
Pm       0.00000000       0.00000000       0.87474747       0.00000000       0.00000000      83.37187958
2
Properties=species:S:1:pos:R:3:forces:R:3 energy=7.9618370734916235 pbc="F F F"
Pm       0.00000000       0.00000000       0.00000000       0.00000000       0.00000000     -61.75857162
Pm       0.00000000       0.00000000       0.93434343       0.00000000       0.00000000      61.75857162
2
Properties=species:S:1:pos:R:3:forces:R:3 energy=4.6971395010935595 pbc="F F F"
Pm       0.00000000       0.00000000       0.00000000       0.00000000       0.00000000     -48.85887146
Pm       0.00000000       0.00000000       0.99393939       0.00000000       0.00000000      48.85887146
2
Properties=species:S:1:pos:R:3:forces:R:3 energy=2.045241725221174 pbc="F F F"
Pm       0.00000000       0.00000000       0.00000000       0.00000000       0.00000000     -40.70542526
Pm       0.00000000       0.00000000       1.05353535       0.00000000       0.00000000      40.70542526
2
Properties=species:S:1:pos:R:3:forces:R:3 energy=-0.20693945798100502 pbc="F F F"
Pm       0.00000000       0.00000000       0.00000000       0.00000000       0.00000000     -35.21356201
Pm       0.00000000       0.00000000       1.11313131       0.00000000       0.00000000      35.21356201
2
Properties=species:S:1:pos:R:3:forces:R:3 energy=-2.1782785603648342 pbc="F F F"
Pm       0.00000000       0.00000000       0.00000000       0.00000000       0.00000000     -31.03748703
Pm       0.00000000       0.00000000       1.17272727       0.00000000       0.00000000      31.03748703
2
Properties=species:S:1:pos:R:3:forces:R:3 energy=-3.911174925006976 pbc="F F F"
Pm       0.00000000       0.00000000       0.00000000       0.00000000       0.00000000     -27.15759850
Pm       0.00000000       0.00000000       1.23232323       0.00000000       0.00000000      27.15759850
2
Properties=species:S:1:pos:R:3:forces:R:3 energy=-5.412291308819982 pbc="F F F"
Pm       0.00000000       0.00000000       0.00000000       0.00000000       0.00000000     -23.05565834
Pm       0.00000000       0.00000000       1.29191919       0.00000000       0.00000000      23.05565834
2
Properties=species:S:1:pos:R:3:forces:R:3 energy=-6.626981620608885 pbc="F F F"
Pm       0.00000000       0.00000000       0.00000000       0.00000000       0.00000000     -17.42736053
Pm       0.00000000       0.00000000       1.35151515       0.00000000       0.00000000      17.42736053
2
Properties=species:S:1:pos:R:3:forces:R:3 energy=-7.471961857788776 pbc="F F F"
Pm       0.00000000       0.00000000       0.00000000       0.00000000       0.00000000     -10.98193741
Pm       0.00000000       0.00000000       1.41111111       0.00000000       0.00000000      10.98193741
2
Properties=species:S:1:pos:R:3:forces:R:3 energy=-7.968321911645648 pbc="F F F"
Pm       0.00000000       0.00000000       0.00000000       0.00000000       0.00000000      -6.12547731
Pm       0.00000000       0.00000000       1.47070707       0.00000000       0.00000000       6.12547731
2
Properties=species:S:1:pos:R:3:forces:R:3 energy=-8.263438682298059 pbc="F F F"
Pm       0.00000000       0.00000000       0.00000000       0.00000000       0.00000000      -4.27377272
Pm       0.00000000       0.00000000       1.53030303       0.00000000       0.00000000       4.27377272
2
Properties=species:S:1:pos:R:3:forces:R:3 energy=-8.522852712880974 pbc="F F F"
Pm       0.00000000       0.00000000       0.00000000       0.00000000       0.00000000      -4.65581274
Pm       0.00000000       0.00000000       1.58989899       0.00000000       0.00000000       4.65581274
2
Properties=species:S:1:pos:R:3:forces:R:3 energy=-8.82425297149118 pbc="F F F"
Pm       0.00000000       0.00000000       0.00000000       0.00000000       0.00000000      -5.35022783
Pm       0.00000000       0.00000000       1.64949495       0.00000000       0.00000000       5.35022783
2
Properties=species:S:1:pos:R:3:forces:R:3 energy=-9.138917458672141 pbc="F F F"
Pm       0.00000000       0.00000000       0.00000000       0.00000000       0.00000000      -5.04292917
Pm       0.00000000       0.00000000       1.70909091       0.00000000       0.00000000       5.04292917
2
Properties=species:S:1:pos:R:3:forces:R:3 energy=-9.418187575368982 pbc="F F F"
Pm       0.00000000       0.00000000       0.00000000       0.00000000       0.00000000      -4.37294483
Pm       0.00000000       0.00000000       1.76868687       0.00000000       0.00000000       4.37294483
2
Properties=species:S:1:pos:R:3:forces:R:3 energy=-9.669194632022728 pbc="F F F"
Pm       0.00000000       0.00000000       0.00000000       0.00000000       0.00000000      -4.11294889
Pm       0.00000000       0.00000000       1.82828283       0.00000000       0.00000000       4.11294889
2
Properties=species:S:1:pos:R:3:forces:R:3 energy=-9.911543948447845 pbc="F F F"
Pm       0.00000000       0.00000000       0.00000000       0.00000000       0.00000000      -4.01798725
Pm       0.00000000       0.00000000       1.88787879       0.00000000       0.00000000       4.01798725
2
Properties=species:S:1:pos:R:3:forces:R:3 energy=-10.14652935658077 pbc="F F F"
Pm       0.00000000       0.00000000       0.00000000       0.00000000       0.00000000      -3.85230994
Pm       0.00000000       0.00000000       1.94747475       0.00000000       0.00000000       3.85230994
2
Properties=species:S:1:pos:R:3:forces:R:3 energy=-10.369315334827375 pbc="F F F"
Pm       0.00000000       0.00000000       0.00000000       0.00000000       0.00000000      -3.61738372
Pm       0.00000000       0.00000000       2.00707071       0.00000000       0.00000000       3.61738372
2
Properties=species:S:1:pos:R:3:forces:R:3 energy=-10.577307521579668 pbc="F F F"
Pm       0.00000000       0.00000000       0.00000000       0.00000000       0.00000000      -3.36142373
Pm       0.00000000       0.00000000       2.06666667       0.00000000       0.00000000       3.36142373
2
Properties=species:S:1:pos:R:3:forces:R:3 energy=-10.76976437969968 pbc="F F F"
Pm       0.00000000       0.00000000       0.00000000       0.00000000       0.00000000      -3.09409690
Pm       0.00000000       0.00000000       2.12626263       0.00000000       0.00000000       3.09409690
2
Properties=species:S:1:pos:R:3:forces:R:3 energy=-10.945523865032351 pbc="F F F"
Pm       0.00000000       0.00000000       0.00000000       0.00000000       0.00000000      -2.79847002
Pm       0.00000000       0.00000000       2.18585859       0.00000000       0.00000000       2.79847002
2
Properties=species:S:1:pos:R:3:forces:R:3 energy=-11.102650402181704 pbc="F F F"
Pm       0.00000000       0.00000000       0.00000000       0.00000000       0.00000000      -2.46979022
Pm       0.00000000       0.00000000       2.24545455       0.00000000       0.00000000       2.46979022
2
Properties=species:S:1:pos:R:3:forces:R:3 energy=-11.239462996109092 pbc="F F F"
Pm       0.00000000       0.00000000       0.00000000       0.00000000       0.00000000      -2.11894202
Pm       0.00000000       0.00000000       2.30505051       0.00000000       0.00000000       2.11894202
2
Properties=species:S:1:pos:R:3:forces:R:3 energy=-11.355031130106434 pbc="F F F"
Pm       0.00000000       0.00000000       0.00000000       0.00000000       0.00000000      -1.75897646
Pm       0.00000000       0.00000000       2.36464646       0.00000000       0.00000000       1.75897646
2
Properties=species:S:1:pos:R:3:forces:R:3 energy=-11.449179496153937 pbc="F F F"
Pm       0.00000000       0.00000000       0.00000000       0.00000000       0.00000000      -1.40212131
Pm       0.00000000       0.00000000       2.42424242       0.00000000       0.00000000       1.40212131
2
Properties=species:S:1:pos:R:3:forces:R:3 energy=-11.522462321741276 pbc="F F F"
Pm       0.00000000       0.00000000       0.00000000       0.00000000       0.00000000      -1.06084549
Pm       0.00000000       0.00000000       2.48383838       0.00000000       0.00000000       1.06084549
2
Properties=species:S:1:pos:R:3:forces:R:3 energy=-11.57617759895462 pbc="F F F"
Pm       0.00000000       0.00000000       0.00000000       0.00000000       0.00000000      -0.74741429
Pm       0.00000000       0.00000000       2.54343434       0.00000000       0.00000000       0.74741429
2
Properties=species:S:1:pos:R:3:forces:R:3 energy=-11.612315636748692 pbc="F F F"
Pm       0.00000000       0.00000000       0.00000000       0.00000000       0.00000000      -0.47246569
Pm       0.00000000       0.00000000       2.60303030       0.00000000       0.00000000       0.47246569
2
Properties=species:S:1:pos:R:3:forces:R:3 energy=-11.633387323542086 pbc="F F F"
Pm       0.00000000       0.00000000       0.00000000       0.00000000       0.00000000      -0.24237630
Pm       0.00000000       0.00000000       2.66262626       0.00000000       0.00000000       0.24237630
2
Properties=species:S:1:pos:R:3:forces:R:3 energy=-11.642097016926744 pbc="F F F"
Pm       0.00000000       0.00000000       0.00000000       0.00000000       0.00000000      -0.05697341
Pm       0.00000000       0.00000000       2.72222222       0.00000000       0.00000000       0.05697341
2
Properties=species:S:1:pos:R:3:forces:R:3 energy=-11.640944988190894 pbc="F F F"
Pm       0.00000000       0.00000000       0.00000000       0.00000000       0.00000000       0.08999731
Pm       0.00000000       0.00000000       2.78181818       0.00000000       0.00000000      -0.08999731
2
Properties=species:S:1:pos:R:3:forces:R:3 energy=-11.631944957323357 pbc="F F F"
Pm       0.00000000       0.00000000       0.00000000       0.00000000       0.00000000       0.20797363
Pm       0.00000000       0.00000000       2.84141414       0.00000000       0.00000000      -0.20797363
2
Properties=species:S:1:pos:R:3:forces:R:3 energy=-11.61654800180885 pbc="F F F"
Pm       0.00000000       0.00000000       0.00000000       0.00000000       0.00000000       0.30608189
Pm       0.00000000       0.00000000       2.90101010       0.00000000       0.00000000      -0.30608189
2
Properties=species:S:1:pos:R:3:forces:R:3 energy=-11.595730728816585 pbc="F F F"
Pm       0.00000000       0.00000000       0.00000000       0.00000000       0.00000000       0.39059427
Pm       0.00000000       0.00000000       2.96060606       0.00000000       0.00000000      -0.39059427
2
Properties=species:S:1:pos:R:3:forces:R:3 energy=-11.570206936885679 pbc="F F F"
Pm       0.00000000       0.00000000       0.00000000       0.00000000       0.00000000       0.46414104
Pm       0.00000000       0.00000000       3.02020202       0.00000000       0.00000000      -0.46414104
2
Properties=species:S:1:pos:R:3:forces:R:3 energy=-11.540625169220498 pbc="F F F"
Pm       0.00000000       0.00000000       0.00000000       0.00000000       0.00000000       0.52680475
Pm       0.00000000       0.00000000       3.07979798       0.00000000       0.00000000      -0.52680475
2
Properties=species:S:1:pos:R:3:forces:R:3 energy=-11.507638585341523 pbc="F F F"
Pm       0.00000000       0.00000000       0.00000000       0.00000000       0.00000000       0.57837367
Pm       0.00000000       0.00000000       3.13939394       0.00000000       0.00000000      -0.57837367
2
Properties=species:S:1:pos:R:3:forces:R:3 energy=-11.47188033027989 pbc="F F F"
Pm       0.00000000       0.00000000       0.00000000       0.00000000       0.00000000       0.62029344
Pm       0.00000000       0.00000000       3.19898990       0.00000000       0.00000000      -0.62029344
2
Properties=species:S:1:pos:R:3:forces:R:3 energy=-11.433824044701398 pbc="F F F"
Pm       0.00000000       0.00000000       0.00000000       0.00000000       0.00000000       0.65629053
Pm       0.00000000       0.00000000       3.25858586       0.00000000       0.00000000      -0.65629053
2
Properties=species:S:1:pos:R:3:forces:R:3 energy=-11.393674331744322 pbc="F F F"
Pm       0.00000000       0.00000000       0.00000000       0.00000000       0.00000000       0.69129968
Pm       0.00000000       0.00000000       3.31818182       0.00000000       0.00000000      -0.69129968
2
Properties=species:S:1:pos:R:3:forces:R:3 energy=-11.351364836999474 pbc="F F F"
Pm       0.00000000       0.00000000       0.00000000       0.00000000       0.00000000       0.72929186
Pm       0.00000000       0.00000000       3.37777778       0.00000000       0.00000000      -0.72929186
2
Properties=species:S:1:pos:R:3:forces:R:3 energy=-11.306669790391368 pbc="F F F"
Pm       0.00000000       0.00000000       0.00000000       0.00000000       0.00000000       0.77110976
Pm       0.00000000       0.00000000       3.43737374       0.00000000       0.00000000      -0.77110976
2
Properties=species:S:1:pos:R:3:forces:R:3 energy=-11.259442462771176 pbc="F F F"
Pm       0.00000000       0.00000000       0.00000000       0.00000000       0.00000000       0.81337458
Pm       0.00000000       0.00000000       3.49696970       0.00000000       0.00000000      -0.81337458
2
Properties=species:S:1:pos:R:3:forces:R:3 energy=-11.209851613790764 pbc="F F F"
Pm       0.00000000       0.00000000       0.00000000       0.00000000       0.00000000       0.84905517
Pm       0.00000000       0.00000000       3.55656566       0.00000000       0.00000000      -0.84905517
2
Properties=species:S:1:pos:R:3:forces:R:3 energy=-11.15854186124331 pbc="F F F"
Pm       0.00000000       0.00000000       0.00000000       0.00000000       0.00000000       0.86969876
Pm       0.00000000       0.00000000       3.61616162       0.00000000       0.00000000      -0.86969876
2
Properties=species:S:1:pos:R:3:forces:R:3 energy=-11.106627806961933 pbc="F F F"
Pm       0.00000000       0.00000000       0.00000000       0.00000000       0.00000000       0.86853349
Pm       0.00000000       0.00000000       3.67575758       0.00000000       0.00000000      -0.86853349
2
Properties=species:S:1:pos:R:3:forces:R:3 energy=-11.055508222383471 pbc="F F F"
Pm       0.00000000       0.00000000       0.00000000       0.00000000       0.00000000       0.84299320
Pm       0.00000000       0.00000000       3.73535354       0.00000000       0.00000000      -0.84299320
2
Properties=species:S:1:pos:R:3:forces:R:3 energy=-11.006591415687923 pbc="F F F"
Pm       0.00000000       0.00000000       0.00000000       0.00000000       0.00000000       0.79531753
Pm       0.00000000       0.00000000       3.79494949       0.00000000       0.00000000      -0.79531753
2
Properties=species:S:1:pos:R:3:forces:R:3 energy=-10.961042305363986 pbc="F F F"
Pm       0.00000000       0.00000000       0.00000000       0.00000000       0.00000000       0.73105574
Pm       0.00000000       0.00000000       3.85454545       0.00000000       0.00000000      -0.73105574
2
Properties=species:S:1:pos:R:3:forces:R:3 energy=-10.919654028972422 pbc="F F F"
Pm       0.00000000       0.00000000       0.00000000       0.00000000       0.00000000       0.65676242
Pm       0.00000000       0.00000000       3.91414141       0.00000000       0.00000000      -0.65676242
2
Properties=species:S:1:pos:R:3:forces:R:3 energy=-10.882842832649686 pbc="F F F"
Pm       0.00000000       0.00000000       0.00000000       0.00000000       0.00000000       0.57834280
Pm       0.00000000       0.00000000       3.97373737       0.00000000       0.00000000      -0.57834280
2
Properties=species:S:1:pos:R:3:forces:R:3 energy=-10.850705646362986 pbc="F F F"
Pm       0.00000000       0.00000000       0.00000000       0.00000000       0.00000000       0.50063092
Pm       0.00000000       0.00000000       4.03333333       0.00000000       0.00000000      -0.50063092
2
Properties=species:S:1:pos:R:3:forces:R:3 energy=-10.823079008977286 pbc="F F F"
Pm       0.00000000       0.00000000       0.00000000       0.00000000       0.00000000       0.42755932
Pm       0.00000000       0.00000000       4.09292929       0.00000000       0.00000000      -0.42755932
2
Properties=species:S:1:pos:R:3:forces:R:3 energy=-10.799586942040456 pbc="F F F"
Pm       0.00000000       0.00000000       0.00000000       0.00000000       0.00000000       0.36239555
Pm       0.00000000       0.00000000       4.15252525       0.00000000       0.00000000      -0.36239555
2
Properties=species:S:1:pos:R:3:forces:R:3 energy=-10.779675269387369 pbc="F F F"
Pm       0.00000000       0.00000000       0.00000000       0.00000000       0.00000000       0.30774632
Pm       0.00000000       0.00000000       4.21212121       0.00000000       0.00000000      -0.30774632
2
Properties=species:S:1:pos:R:3:forces:R:3 energy=-10.762659275513153 pbc="F F F"
Pm       0.00000000       0.00000000       0.00000000       0.00000000       0.00000000       0.26547167
Pm       0.00000000       0.00000000       4.27171717       0.00000000       0.00000000      -0.26547167
2
Properties=species:S:1:pos:R:3:forces:R:3 energy=-10.747765844641142 pbc="F F F"
Pm       0.00000000       0.00000000       0.00000000       0.00000000       0.00000000       0.23666154
Pm       0.00000000       0.00000000       4.33131313       0.00000000       0.00000000      -0.23666154
2
Properties=species:S:1:pos:R:3:forces:R:3 energy=-10.734177355084018 pbc="F F F"
Pm       0.00000000       0.00000000       0.00000000       0.00000000       0.00000000       0.22162710
Pm       0.00000000       0.00000000       4.39090909       0.00000000       0.00000000      -0.22162710
2
Properties=species:S:1:pos:R:3:forces:R:3 energy=-10.721083126971736 pbc="F F F"
Pm       0.00000000       0.00000000       0.00000000       0.00000000       0.00000000       0.21994996
Pm       0.00000000       0.00000000       4.45050505       0.00000000       0.00000000      -0.21994996
2
Properties=species:S:1:pos:R:3:forces:R:3 energy=-10.707717759293514 pbc="F F F"
Pm       0.00000000       0.00000000       0.00000000       0.00000000       0.00000000       0.23047622
Pm       0.00000000       0.00000000       4.51010101       0.00000000       0.00000000      -0.23047622
2
Properties=species:S:1:pos:R:3:forces:R:3 energy=-10.693407796582887 pbc="F F F"
Pm       0.00000000       0.00000000       0.00000000       0.00000000       0.00000000       0.25126195
Pm       0.00000000       0.00000000       4.56969697       0.00000000       0.00000000      -0.25126195
2
Properties=species:S:1:pos:R:3:forces:R:3 energy=-10.677620531034606 pbc="F F F"
Pm       0.00000000       0.00000000       0.00000000       0.00000000       0.00000000       0.27953118
Pm       0.00000000       0.00000000       4.62929293       0.00000000       0.00000000      -0.27953118
2
Properties=species:S:1:pos:R:3:forces:R:3 energy=-10.66001163553529 pbc="F F F"
Pm       0.00000000       0.00000000       0.00000000       0.00000000       0.00000000       0.31172892
Pm       0.00000000       0.00000000       4.68888889       0.00000000       0.00000000      -0.31172892
2
Properties=species:S:1:pos:R:3:forces:R:3 energy=-10.64046729006011 pbc="F F F"
Pm       0.00000000       0.00000000       0.00000000       0.00000000       0.00000000       0.34380779
Pm       0.00000000       0.00000000       4.74848485       0.00000000       0.00000000      -0.34380779
2
Properties=species:S:1:pos:R:3:forces:R:3 energy=-10.619114520034811 pbc="F F F"
Pm       0.00000000       0.00000000       0.00000000       0.00000000       0.00000000       0.37181669
Pm       0.00000000       0.00000000       4.80808081       0.00000000       0.00000000      -0.37181669
2
Properties=species:S:1:pos:R:3:forces:R:3 energy=-10.596291898528944 pbc="F F F"
Pm       0.00000000       0.00000000       0.00000000       0.00000000       0.00000000       0.39269999
Pm       0.00000000       0.00000000       4.86767677       0.00000000       0.00000000      -0.39269999
2
Properties=species:S:1:pos:R:3:forces:R:3 energy=-10.572477893969275 pbc="F F F"
Pm       0.00000000       0.00000000       0.00000000       0.00000000       0.00000000       0.40503055
Pm       0.00000000       0.00000000       4.92727273       0.00000000       0.00000000      -0.40503055
2
Properties=species:S:1:pos:R:3:forces:R:3 energy=-10.548176467235656 pbc="F F F"
Pm       0.00000000       0.00000000       0.00000000       0.00000000       0.00000000       0.40930915
Pm       0.00000000       0.00000000       4.98686869       0.00000000       0.00000000      -0.40930915
2
Properties=species:S:1:pos:R:3:forces:R:3 energy=-10.523815079194348 pbc="F F F"
Pm       0.00000000       0.00000000       0.00000000       0.00000000       0.00000000       0.40748754
Pm       0.00000000       0.00000000       5.04646465       0.00000000       0.00000000      -0.40748754
2
Properties=species:S:1:pos:R:3:forces:R:3 energy=-10.4996873245192 pbc="F F F"
Pm       0.00000000       0.00000000       0.00000000       0.00000000       0.00000000       0.40162677
Pm       0.00000000       0.00000000       5.10606061       0.00000000       0.00000000      -0.40162677
2
Properties=species:S:1:pos:R:3:forces:R:3 energy=-10.476015072577688 pbc="F F F"
Pm       0.00000000       0.00000000       0.00000000       0.00000000       0.00000000       0.39191246
Pm       0.00000000       0.00000000       5.16565657       0.00000000       0.00000000      -0.39191246
2
Properties=species:S:1:pos:R:3:forces:R:3 energy=-10.453114248370861 pbc="F F F"
Pm       0.00000000       0.00000000       0.00000000       0.00000000       0.00000000       0.37498245
Pm       0.00000000       0.00000000       5.22525253       0.00000000       0.00000000      -0.37498245
2
Properties=species:S:1:pos:R:3:forces:R:3 energy=-10.43157690830004 pbc="F F F"
Pm       0.00000000       0.00000000       0.00000000       0.00000000       0.00000000       0.34544533
Pm       0.00000000       0.00000000       5.28484848       0.00000000       0.00000000      -0.34544533
2
Properties=species:S:1:pos:R:3:forces:R:3 energy=-10.412145386835274 pbc="F F F"
Pm       0.00000000       0.00000000       0.00000000       0.00000000       0.00000000       0.30648071
Pm       0.00000000       0.00000000       5.34444444       0.00000000       0.00000000      -0.30648071
2
Properties=species:S:1:pos:R:3:forces:R:3 energy=-10.394709801075114 pbc="F F F"
Pm       0.00000000       0.00000000       0.00000000       0.00000000       0.00000000       0.28465939
Pm       0.00000000       0.00000000       5.40404040       0.00000000       0.00000000      -0.28465939
2
Properties=species:S:1:pos:R:3:forces:R:3 energy=-10.37737723927123 pbc="F F F"
Pm       0.00000000       0.00000000       0.00000000       0.00000000       0.00000000       0.30193034
Pm       0.00000000       0.00000000       5.46363636       0.00000000       0.00000000      -0.30193034
2
Properties=species:S:1:pos:R:3:forces:R:3 energy=-10.358785241671466 pbc="F F F"
Pm       0.00000000       0.00000000       0.00000000       0.00000000       0.00000000       0.31651020
Pm       0.00000000       0.00000000       5.52323232       0.00000000       0.00000000      -0.31651020
2
Properties=species:S:1:pos:R:3:forces:R:3 energy=-10.340522194256673 pbc="F F F"
Pm       0.00000000       0.00000000       0.00000000       0.00000000       0.00000000       0.29087651
Pm       0.00000000       0.00000000       5.58282828       0.00000000       0.00000000      -0.29087651
2
Properties=species:S:1:pos:R:3:forces:R:3 energy=-10.32415256512206 pbc="F F F"
Pm       0.00000000       0.00000000       0.00000000       0.00000000       0.00000000       0.26415330
Pm       0.00000000       0.00000000       5.64242424       0.00000000       0.00000000      -0.26415330
2
Properties=species:S:1:pos:R:3:forces:R:3 energy=-10.307823788280217 pbc="F F F"
Pm       0.00000000       0.00000000       0.00000000       0.00000000       0.00000000       0.29472682
Pm       0.00000000       0.00000000       5.70202020       0.00000000       0.00000000      -0.29472682
2
Properties=species:S:1:pos:R:3:forces:R:3 energy=-10.288495789486126 pbc="F F F"
Pm       0.00000000       0.00000000       0.00000000       0.00000000       0.00000000       0.34856993
Pm       0.00000000       0.00000000       5.76161616       0.00000000       0.00000000      -0.34856993
2
Properties=species:S:1:pos:R:3:forces:R:3 energy=-10.268125431130521 pbc="F F F"
Pm       0.00000000       0.00000000       0.00000000       0.00000000       0.00000000       0.31500074
Pm       0.00000000       0.00000000       5.82121212       0.00000000       0.00000000      -0.31500074
2
Properties=species:S:1:pos:R:3:forces:R:3 energy=-10.252733825094092 pbc="F F F"
Pm       0.00000000       0.00000000       0.00000000       0.00000000       0.00000000       0.19665799
Pm       0.00000000       0.00000000       5.88080808       0.00000000       0.00000000      -0.19665799
2
Properties=species:S:1:pos:R:3:forces:R:3 energy=-10.244485928165549 pbc="F F F"
Pm       0.00000000       0.00000000       0.00000000       0.00000000       0.00000000       0.08571243
Pm       0.00000000       0.00000000       5.94040404       0.00000000       0.00000000      -0.08571243
2
Properties=species:S:1:pos:R:3:forces:R:3 energy=-10.241107796349153 pbc="F F F"
Pm       0.00000000       0.00000000       0.00000000       0.00000000       0.00000000       0.04226183
Pm       0.00000000       0.00000000       6.00000000       0.00000000       0.00000000      -0.04226183
