2
Properties=species:S:1:pos:R:3:forces:R:3 energy=110563.05722030363 pbc="F F F"
Pu       0.00000000       0.00000000       0.00000000       0.00000000       0.00000000 -2910065.75000000
Pu       0.00000000       0.00000000       0.10000000       0.00000000       0.00000000 2910065.75000000
2
Properties=species:S:1:pos:R:3:forces:R:3 energy=28146.69393905362 pbc="F F F"
Pu       0.00000000       0.00000000       0.00000000       0.00000000       0.00000000 -579110.06250000
Pu       0.00000000       0.00000000       0.15959596       0.00000000       0.00000000  579110.06250000
2
Properties=species:S:1:pos:R:3:forces:R:3 energy=8729.42733749112 pbc="F F F"
Pu       0.00000000       0.00000000       0.00000000       0.00000000       0.00000000 -168992.92187500
Pu       0.00000000       0.00000000       0.21919192       0.00000000       0.00000000  168992.92187500
2
Properties=species:S:1:pos:R:3:forces:R:3 energy=2523.2276304598713 pbc="F F F"
Pu       0.00000000       0.00000000       0.00000000       0.00000000       0.00000000  -60207.76171875
Pu       0.00000000       0.00000000       0.27878788       0.00000000       0.00000000   60207.76171875
2
Properties=species:S:1:pos:R:3:forces:R:3 energy=190.10501083096514 pbc="F F F"
Pu       0.00000000       0.00000000       0.00000000       0.00000000       0.00000000  -24123.17382812
Pu       0.00000000       0.00000000       0.33838384       0.00000000       0.00000000   24123.17382812
2
Properties=species:S:1:pos:R:3:forces:R:3 energy=-778.8509217862223 pbc="F F F"
Pu       0.00000000       0.00000000       0.00000000       0.00000000       0.00000000  -10450.79296875
Pu       0.00000000       0.00000000       0.39797980       0.00000000       0.00000000   10450.79296875
2
Properties=species:S:1:pos:R:3:forces:R:3 energy=-1208.563385158793 pbc="F F F"
Pu       0.00000000       0.00000000       0.00000000       0.00000000       0.00000000   -4745.64404297
Pu       0.00000000       0.00000000       0.45757576       0.00000000       0.00000000    4745.64404297
2
Properties=species:S:1:pos:R:3:forces:R:3 energy=-1403.9961244102699 pbc="F F F"
Pu       0.00000000       0.00000000       0.00000000       0.00000000       0.00000000   -2123.09643555
Pu       0.00000000       0.00000000       0.51717172       0.00000000       0.00000000    2123.09643555
2
Properties=species:S:1:pos:R:3:forces:R:3 energy=-1485.5271302633091 pbc="F F F"
Pu       0.00000000       0.00000000       0.00000000       0.00000000       0.00000000    -736.19525146
Pu       0.00000000       0.00000000       0.57676768       0.00000000       0.00000000     736.19525146
2
Properties=species:S:1:pos:R:3:forces:R:3 energy=-1500.6656800489898 pbc="F F F"
Pu       0.00000000       0.00000000       0.00000000       0.00000000       0.00000000     189.13156128
Pu       0.00000000       0.00000000       0.63636364       0.00000000       0.00000000    -189.13156128
2
Properties=species:S:1:pos:R:3:forces:R:3 energy=-1464.7608948610616 pbc="F F F"
Pu       0.00000000       0.00000000       0.00000000       0.00000000       0.00000000    1019.41827393
Pu       0.00000000       0.00000000       0.69595960       0.00000000       0.00000000   -1019.41827393
2
Properties=species:S:1:pos:R:3:forces:R:3 energy=-1377.2290344651494 pbc="F F F"
Pu       0.00000000       0.00000000       0.00000000       0.00000000       0.00000000    1943.17260742
Pu       0.00000000       0.00000000       0.75555556       0.00000000       0.00000000   -1943.17260742
2
Properties=species:S:1:pos:R:3:forces:R:3 energy=-1212.8192443563948 pbc="F F F"
Pu       0.00000000       0.00000000       0.00000000       0.00000000       0.00000000    4237.54541016
Pu       0.00000000       0.00000000       0.81515152       0.00000000       0.00000000   -4237.54541016
2
Properties=species:S:1:pos:R:3:forces:R:3 energy=-943.7466734669147 pbc="F F F"
Pu       0.00000000       0.00000000       0.00000000       0.00000000       0.00000000    4796.02929688
Pu       0.00000000       0.00000000       0.87474747       0.00000000       0.00000000   -4796.02929688
2
Properties=species:S:1:pos:R:3:forces:R:3 energy=-578.9996640438511 pbc="F F F"
Pu       0.00000000       0.00000000       0.00000000       0.00000000       0.00000000    5848.87841797
Pu       0.00000000       0.00000000       0.93434343       0.00000000       0.00000000   -5848.87841797
2
Properties=species:S:1:pos:R:3:forces:R:3 energy=-157.8453211960789 pbc="F F F"
Pu       0.00000000       0.00000000       0.00000000       0.00000000       0.00000000   11768.44628906
Pu       0.00000000       0.00000000       0.99393939       0.00000000       0.00000000  -11768.44628906
2
Properties=species:S:1:pos:R:3:forces:R:3 energy=323.505219212144 pbc="F F F"
Pu       0.00000000       0.00000000       0.00000000       0.00000000       0.00000000    6133.23242188
Pu       0.00000000       0.00000000       1.05353535       0.00000000       0.00000000   -6133.23242188
2
Properties=species:S:1:pos:R:3:forces:R:3 energy=490.3951731738857 pbc="F F F"
Pu       0.00000000       0.00000000       0.00000000       0.00000000       0.00000000    -118.81090546
Pu       0.00000000       0.00000000       1.11313131       0.00000000       0.00000000     118.81090546
2
Properties=species:S:1:pos:R:3:forces:R:3 energy=382.848603812169 pbc="F F F"
Pu       0.00000000       0.00000000       0.00000000       0.00000000       0.00000000   -2845.55444336
Pu       0.00000000       0.00000000       1.17272727       0.00000000       0.00000000    2845.55444336
2
Properties=species:S:1:pos:R:3:forces:R:3 energy=204.89862271193078 pbc="F F F"
Pu       0.00000000       0.00000000       0.00000000       0.00000000       0.00000000   -2881.66796875
Pu       0.00000000       0.00000000       1.23232323       0.00000000       0.00000000    2881.66796875
2
Properties=species:S:1:pos:R:3:forces:R:3 energy=43.62759686087998 pbc="F F F"
Pu       0.00000000       0.00000000       0.00000000       0.00000000       0.00000000   -2095.65576172
Pu       0.00000000       0.00000000       1.29191919       0.00000000       0.00000000    2095.65576172
2
Properties=species:S:1:pos:R:3:forces:R:3 energy=31.006299993929847 pbc="F F F"
Pu       0.00000000       0.00000000       0.00000000       0.00000000       0.00000000     -23.25871277
Pu       0.00000000       0.00000000       1.35151515       0.00000000       0.00000000      23.25871277
2
Properties=species:S:1:pos:R:3:forces:R:3 energy=30.08925561077619 pbc="F F F"
Pu       0.00000000       0.00000000       0.00000000       0.00000000       0.00000000     -15.30746078
Pu       0.00000000       0.00000000       1.41111111       0.00000000       0.00000000      15.30746078
2
Properties=species:S:1:pos:R:3:forces:R:3 energy=24.355839614008847 pbc="F F F"
Pu       0.00000000       0.00000000       0.00000000       0.00000000       0.00000000    -170.76400757
Pu       0.00000000       0.00000000       1.47070707       0.00000000       0.00000000     170.76400757
2
Properties=species:S:1:pos:R:3:forces:R:3 energy=15.255442465689931 pbc="F F F"
Pu       0.00000000       0.00000000       0.00000000       0.00000000       0.00000000    -138.94494629
Pu       0.00000000       0.00000000       1.53030303       0.00000000       0.00000000     138.94494629
2
Properties=species:S:1:pos:R:3:forces:R:3 energy=6.164773219886525 pbc="F F F"
Pu       0.00000000       0.00000000       0.00000000       0.00000000       0.00000000    -203.67462158
Pu       0.00000000       0.00000000       1.58989899       0.00000000       0.00000000     203.67462158
2
Properties=species:S:1:pos:R:3:forces:R:3 energy=-5.487217737620219 pbc="F F F"
Pu       0.00000000       0.00000000       0.00000000       0.00000000       0.00000000    -177.36138916
Pu       0.00000000       0.00000000       1.64949495       0.00000000       0.00000000     177.36138916
2
Properties=species:S:1:pos:R:3:forces:R:3 energy=-14.47628906775306 pbc="F F F"
Pu       0.00000000       0.00000000       0.00000000       0.00000000       0.00000000    -115.29901123
Pu       0.00000000       0.00000000       1.70909091       0.00000000       0.00000000     115.29901123
2
Properties=species:S:1:pos:R:3:forces:R:3 energy=-19.50578119320155 pbc="F F F"
Pu       0.00000000       0.00000000       0.00000000       0.00000000       0.00000000     -55.89568710
Pu       0.00000000       0.00000000       1.76868687       0.00000000       0.00000000      55.89568710
2
Properties=species:S:1:pos:R:3:forces:R:3 energy=-21.776692312534152 pbc="F F F"
Pu       0.00000000       0.00000000       0.00000000       0.00000000       0.00000000     -26.63404274
Pu       0.00000000       0.00000000       1.82828283       0.00000000       0.00000000      26.63404274
2
Properties=species:S:1:pos:R:3:forces:R:3 energy=-22.87572752586962 pbc="F F F"
Pu       0.00000000       0.00000000       0.00000000       0.00000000       0.00000000      -7.55599451
Pu       0.00000000       0.00000000       1.88787879       0.00000000       0.00000000       7.55599451
2
Properties=species:S:1:pos:R:3:forces:R:3 energy=-22.546725926061576 pbc="F F F"
Pu       0.00000000       0.00000000       0.00000000       0.00000000       0.00000000      14.47818851
Pu       0.00000000       0.00000000       1.94747475       0.00000000       0.00000000     -14.47818851
2
Properties=species:S:1:pos:R:3:forces:R:3 energy=-21.872763857112265 pbc="F F F"
Pu       0.00000000       0.00000000       0.00000000       0.00000000       0.00000000       4.66519785
Pu       0.00000000       0.00000000       2.00707071       0.00000000       0.00000000      -4.66519785
2
Properties=species:S:1:pos:R:3:forces:R:3 energy=-21.963685368394255 pbc="F F F"
Pu       0.00000000       0.00000000       0.00000000       0.00000000       0.00000000      -5.76016140
Pu       0.00000000       0.00000000       2.06666667       0.00000000       0.00000000       5.76016140
2
Properties=species:S:1:pos:R:3:forces:R:3 energy=-22.342628278089002 pbc="F F F"
Pu       0.00000000       0.00000000       0.00000000       0.00000000       0.00000000      -5.69760323
Pu       0.00000000       0.00000000       2.12626263       0.00000000       0.00000000       5.69760323
2
Properties=species:S:1:pos:R:3:forces:R:3 energy=-22.607874300828247 pbc="F F F"
Pu       0.00000000       0.00000000       0.00000000       0.00000000       0.00000000      -3.86051059
Pu       0.00000000       0.00000000       2.18585859       0.00000000       0.00000000       3.86051059
2
Properties=species:S:1:pos:R:3:forces:R:3 energy=-22.901082023165998 pbc="F F F"
Pu       0.00000000       0.00000000       0.00000000       0.00000000       0.00000000      -6.21861601
Pu       0.00000000       0.00000000       2.24545455       0.00000000       0.00000000       6.21861601
2
Properties=species:S:1:pos:R:3:forces:R:3 energy=-23.288527798990255 pbc="F F F"
Pu       0.00000000       0.00000000       0.00000000       0.00000000       0.00000000      -6.01226711
Pu       0.00000000       0.00000000       2.30505051       0.00000000       0.00000000       6.01226711
2
Properties=species:S:1:pos:R:3:forces:R:3 energy=-23.561061180921435 pbc="F F F"
Pu       0.00000000       0.00000000       0.00000000       0.00000000       0.00000000      -3.02626991
Pu       0.00000000       0.00000000       2.36464646       0.00000000       0.00000000       3.02626991
2
Properties=species:S:1:pos:R:3:forces:R:3 energy=-23.659043210915684 pbc="F F F"
Pu       0.00000000       0.00000000       0.00000000       0.00000000       0.00000000      -0.40989378
Pu       0.00000000       0.00000000       2.42424242       0.00000000       0.00000000       0.40989378
2
Properties=species:S:1:pos:R:3:forces:R:3 energy=-23.626209538843217 pbc="F F F"
Pu       0.00000000       0.00000000       0.00000000       0.00000000       0.00000000       1.40920925
Pu       0.00000000       0.00000000       2.48383838       0.00000000       0.00000000      -1.40920925
2
Properties=species:S:1:pos:R:3:forces:R:3 energy=-23.495614979012704 pbc="F F F"
Pu       0.00000000       0.00000000       0.00000000       0.00000000       0.00000000       2.98780704
Pu       0.00000000       0.00000000       2.54343434       0.00000000       0.00000000      -2.98780704
2
Properties=species:S:1:pos:R:3:forces:R:3 energy=-23.273730303367955 pbc="F F F"
Pu       0.00000000       0.00000000       0.00000000       0.00000000       0.00000000       4.31089258
Pu       0.00000000       0.00000000       2.60303030       0.00000000       0.00000000      -4.31089258
2
Properties=species:S:1:pos:R:3:forces:R:3 energy=-23.013190476377172 pbc="F F F"
Pu       0.00000000       0.00000000       0.00000000       0.00000000       0.00000000       4.13167667
Pu       0.00000000       0.00000000       2.66262626       0.00000000       0.00000000      -4.13167667
2
Properties=species:S:1:pos:R:3:forces:R:3 energy=-22.806331322094632 pbc="F F F"
Pu       0.00000000       0.00000000       0.00000000       0.00000000       0.00000000       2.73098564
Pu       0.00000000       0.00000000       2.72222222       0.00000000       0.00000000      -2.73098564
2
Properties=species:S:1:pos:R:3:forces:R:3 energy=-22.683896296107086 pbc="F F F"
Pu       0.00000000       0.00000000       0.00000000       0.00000000       0.00000000       1.47965705
Pu       0.00000000       0.00000000       2.78181818       0.00000000       0.00000000      -1.47965705
2
Properties=species:S:1:pos:R:3:forces:R:3 energy=-22.61627138273985 pbc="F F F"
Pu       0.00000000       0.00000000       0.00000000       0.00000000       0.00000000       0.89301306
Pu       0.00000000       0.00000000       2.84141414       0.00000000       0.00000000      -0.89301306
2
Properties=species:S:1:pos:R:3:forces:R:3 energy=-22.568474944501318 pbc="F F F"
Pu       0.00000000       0.00000000       0.00000000       0.00000000       0.00000000       0.75765628
Pu       0.00000000       0.00000000       2.90101010       0.00000000       0.00000000      -0.75765628
2
Properties=species:S:1:pos:R:3:forces:R:3 energy=-22.52310440593585 pbc="F F F"
Pu       0.00000000       0.00000000       0.00000000       0.00000000       0.00000000       0.77258724
Pu       0.00000000       0.00000000       2.96060606       0.00000000       0.00000000      -0.77258724
2
Properties=species:S:1:pos:R:3:forces:R:3 energy=-22.476401285368606 pbc="F F F"
Pu       0.00000000       0.00000000       0.00000000       0.00000000       0.00000000       0.79127836
Pu       0.00000000       0.00000000       3.02020202       0.00000000       0.00000000      -0.79127836
2
Properties=species:S:1:pos:R:3:forces:R:3 energy=-22.42915176645283 pbc="F F F"
Pu       0.00000000       0.00000000       0.00000000       0.00000000       0.00000000       0.79291803
Pu       0.00000000       0.00000000       3.07979798       0.00000000       0.00000000      -0.79291803
2
Properties=species:S:1:pos:R:3:forces:R:3 energy=-22.38182595591594 pbc="F F F"
Pu       0.00000000       0.00000000       0.00000000       0.00000000       0.00000000       0.79773319
Pu       0.00000000       0.00000000       3.13939394       0.00000000       0.00000000      -0.79773319
2
Properties=species:S:1:pos:R:3:forces:R:3 energy=-22.333582791799188 pbc="F F F"
Pu       0.00000000       0.00000000       0.00000000       0.00000000       0.00000000       0.82672375
Pu       0.00000000       0.00000000       3.19898990       0.00000000       0.00000000      -0.82672375
2
Properties=species:S:1:pos:R:3:forces:R:3 energy=-22.28254216612429 pbc="F F F"
Pu       0.00000000       0.00000000       0.00000000       0.00000000       0.00000000       0.89278668
Pu       0.00000000       0.00000000       3.25858586       0.00000000       0.00000000      -0.89278668
2
Properties=species:S:1:pos:R:3:forces:R:3 energy=-22.22642094534795 pbc="F F F"
Pu       0.00000000       0.00000000       0.00000000       0.00000000       0.00000000       0.99604583
Pu       0.00000000       0.00000000       3.31818182       0.00000000       0.00000000      -0.99604583
2
Properties=species:S:1:pos:R:3:forces:R:3 energy=-22.16333546266128 pbc="F F F"
Pu       0.00000000       0.00000000       0.00000000       0.00000000       0.00000000       1.12356234
Pu       0.00000000       0.00000000       3.37777778       0.00000000       0.00000000      -1.12356234
2
Properties=species:S:1:pos:R:3:forces:R:3 energy=-22.09240352422997 pbc="F F F"
Pu       0.00000000       0.00000000       0.00000000       0.00000000       0.00000000       1.25611031
Pu       0.00000000       0.00000000       3.43737374       0.00000000       0.00000000      -1.25611031
2
Properties=species:S:1:pos:R:3:forces:R:3 energy=-22.013855000917808 pbc="F F F"
Pu       0.00000000       0.00000000       0.00000000       0.00000000       0.00000000       1.37692249
Pu       0.00000000       0.00000000       3.49696970       0.00000000       0.00000000      -1.37692249
2
Properties=species:S:1:pos:R:3:forces:R:3 energy=-21.928715099225904 pbc="F F F"
Pu       0.00000000       0.00000000       0.00000000       0.00000000       0.00000000       1.47621989
Pu       0.00000000       0.00000000       3.55656566       0.00000000       0.00000000      -1.47621989
2
Properties=species:S:1:pos:R:3:forces:R:3 energy=-21.83841705949006 pbc="F F F"
Pu       0.00000000       0.00000000       0.00000000       0.00000000       0.00000000       1.54965174
Pu       0.00000000       0.00000000       3.61616162       0.00000000       0.00000000      -1.54965174
2
Properties=species:S:1:pos:R:3:forces:R:3 energy=-21.74459444837953 pbc="F F F"
Pu       0.00000000       0.00000000       0.00000000       0.00000000       0.00000000       1.59364688
Pu       0.00000000       0.00000000       3.67575758       0.00000000       0.00000000      -1.59364688
2
Properties=species:S:1:pos:R:3:forces:R:3 energy=-21.649181669331686 pbc="F F F"
Pu       0.00000000       0.00000000       0.00000000       0.00000000       0.00000000       1.60154641
Pu       0.00000000       0.00000000       3.73535354       0.00000000       0.00000000      -1.60154641
2
Properties=species:S:1:pos:R:3:forces:R:3 energy=-21.554609762906324 pbc="F F F"
Pu       0.00000000       0.00000000       0.00000000       0.00000000       0.00000000       1.56387568
Pu       0.00000000       0.00000000       3.79494949       0.00000000       0.00000000      -1.56387568
2
Properties=species:S:1:pos:R:3:forces:R:3 energy=-21.463792002869727 pbc="F F F"
Pu       0.00000000       0.00000000       0.00000000       0.00000000       0.00000000       1.47574723
Pu       0.00000000       0.00000000       3.85454545       0.00000000       0.00000000      -1.47574723
2
Properties=species:S:1:pos:R:3:forces:R:3 energy=-21.379560093394858 pbc="F F F"
Pu       0.00000000       0.00000000       0.00000000       0.00000000       0.00000000       1.34544361
Pu       0.00000000       0.00000000       3.91414141       0.00000000       0.00000000      -1.34544361
2
Properties=species:S:1:pos:R:3:forces:R:3 energy=-21.3038657849058 pbc="F F F"
Pu       0.00000000       0.00000000       0.00000000       0.00000000       0.00000000       1.19308197
Pu       0.00000000       0.00000000       3.97373737       0.00000000       0.00000000      -1.19308197
2
Properties=species:S:1:pos:R:3:forces:R:3 energy=-21.237337353459402 pbc="F F F"
Pu       0.00000000       0.00000000       0.00000000       0.00000000       0.00000000       1.04132330
Pu       0.00000000       0.00000000       4.03333333       0.00000000       0.00000000      -1.04132330
2
Properties=species:S:1:pos:R:3:forces:R:3 energy=-21.179386041198374 pbc="F F F"
Pu       0.00000000       0.00000000       0.00000000       0.00000000       0.00000000       0.90754390
Pu       0.00000000       0.00000000       4.09292929       0.00000000       0.00000000      -0.90754390
2
Properties=species:S:1:pos:R:3:forces:R:3 energy=-21.12861597471922 pbc="F F F"
Pu       0.00000000       0.00000000       0.00000000       0.00000000       0.00000000       0.80114937
Pu       0.00000000       0.00000000       4.15252525       0.00000000       0.00000000      -0.80114937
2
Properties=species:S:1:pos:R:3:forces:R:3 energy=-21.08330620181786 pbc="F F F"
Pu       0.00000000       0.00000000       0.00000000       0.00000000       0.00000000       0.72419280
Pu       0.00000000       0.00000000       4.21212121       0.00000000       0.00000000      -0.72419280
2
Properties=species:S:1:pos:R:3:forces:R:3 energy=-21.041780000498846 pbc="F F F"
Pu       0.00000000       0.00000000       0.00000000       0.00000000       0.00000000       0.67326277
Pu       0.00000000       0.00000000       4.27171717       0.00000000       0.00000000      -0.67326277
2
Properties=species:S:1:pos:R:3:forces:R:3 energy=-21.002676510920065 pbc="F F F"
Pu       0.00000000       0.00000000       0.00000000       0.00000000       0.00000000       0.64156401
Pu       0.00000000       0.00000000       4.33131313       0.00000000       0.00000000      -0.64156401
2
Properties=species:S:1:pos:R:3:forces:R:3 energy=-20.96509788474295 pbc="F F F"
Pu       0.00000000       0.00000000       0.00000000       0.00000000       0.00000000       0.62055010
Pu       0.00000000       0.00000000       4.39090909       0.00000000       0.00000000      -0.62055010
2
Properties=species:S:1:pos:R:3:forces:R:3 energy=-20.928681852440153 pbc="F F F"
Pu       0.00000000       0.00000000       0.00000000       0.00000000       0.00000000       0.60097301
Pu       0.00000000       0.00000000       4.45050505       0.00000000       0.00000000      -0.60097301
2
Properties=species:S:1:pos:R:3:forces:R:3 energy=-20.893620600057197 pbc="F F F"
Pu       0.00000000       0.00000000       0.00000000       0.00000000       0.00000000       0.57364368
Pu       0.00000000       0.00000000       4.51010101       0.00000000       0.00000000      -0.57364368
2
Properties=species:S:1:pos:R:3:forces:R:3 energy=-20.860626918446055 pbc="F F F"
Pu       0.00000000       0.00000000       0.00000000       0.00000000       0.00000000       0.53033257
Pu       0.00000000       0.00000000       4.56969697       0.00000000       0.00000000      -0.53033257
2
Properties=species:S:1:pos:R:3:forces:R:3 energy=-20.830850641057033 pbc="F F F"
Pu       0.00000000       0.00000000       0.00000000       0.00000000       0.00000000       0.46491370
Pu       0.00000000       0.00000000       4.62929293       0.00000000       0.00000000      -0.46491370
2
Properties=species:S:1:pos:R:3:forces:R:3 energy=-20.805710917636322 pbc="F F F"
Pu       0.00000000       0.00000000       0.00000000       0.00000000       0.00000000       0.37457761
Pu       0.00000000       0.00000000       4.68888889       0.00000000       0.00000000      -0.37457761
2
Properties=species:S:1:pos:R:3:forces:R:3 energy=-20.78667493010636 pbc="F F F"
Pu       0.00000000       0.00000000       0.00000000       0.00000000       0.00000000       0.26067215
Pu       0.00000000       0.00000000       4.74848485       0.00000000       0.00000000      -0.26067215
2
Properties=species:S:1:pos:R:3:forces:R:3 energy=-20.774996832893287 pbc="F F F"
Pu       0.00000000       0.00000000       0.00000000       0.00000000       0.00000000       0.12899752
Pu       0.00000000       0.00000000       4.80808081       0.00000000       0.00000000      -0.12899752
2
Properties=species:S:1:pos:R:3:forces:R:3 energy=-20.771461959133863 pbc="F F F"
Pu       0.00000000       0.00000000       0.00000000       0.00000000       0.00000000      -0.01068670
Pu       0.00000000       0.00000000       4.86767677       0.00000000       0.00000000       0.01068670
2
Properties=species:S:1:pos:R:3:forces:R:3 energy=-20.776177291094225 pbc="F F F"
Pu       0.00000000       0.00000000       0.00000000       0.00000000       0.00000000      -0.14557943
Pu       0.00000000       0.00000000       4.92727273       0.00000000       0.00000000       0.14557943
2
Properties=species:S:1:pos:R:3:forces:R:3 energy=-20.78843386497125 pbc="F F F"
Pu       0.00000000       0.00000000       0.00000000       0.00000000       0.00000000      -0.26141015
Pu       0.00000000       0.00000000       4.98686869       0.00000000       0.00000000       0.26141015
2
Properties=species:S:1:pos:R:3:forces:R:3 energy=-20.806684129799102 pbc="F F F"
Pu       0.00000000       0.00000000       0.00000000       0.00000000       0.00000000      -0.34472808
Pu       0.00000000       0.00000000       5.04646465       0.00000000       0.00000000       0.34472808
2
Properties=species:S:1:pos:R:3:forces:R:3 energy=-20.82868862322462 pbc="F F F"
Pu       0.00000000       0.00000000       0.00000000       0.00000000       0.00000000      -0.38636655
Pu       0.00000000       0.00000000       5.10606061       0.00000000       0.00000000       0.38636655
2
Properties=species:S:1:pos:R:3:forces:R:3 energy=-20.85188415948554 pbc="F F F"
Pu       0.00000000       0.00000000       0.00000000       0.00000000       0.00000000      -0.38530952
Pu       0.00000000       0.00000000       5.16565657       0.00000000       0.00000000       0.38530952
2
Properties=species:S:1:pos:R:3:forces:R:3 energy=-20.87394837926324 pbc="F F F"
Pu       0.00000000       0.00000000       0.00000000       0.00000000       0.00000000      -0.35082856
Pu       0.00000000       0.00000000       5.22525253       0.00000000       0.00000000       0.35082856
2
Properties=species:S:1:pos:R:3:forces:R:3 energy=-20.89332793953419 pbc="F F F"
Pu       0.00000000       0.00000000       0.00000000       0.00000000       0.00000000      -0.29730988
Pu       0.00000000       0.00000000       5.28484848       0.00000000       0.00000000       0.29730988
2
Properties=species:S:1:pos:R:3:forces:R:3 energy=-20.909086027049653 pbc="F F F"
Pu       0.00000000       0.00000000       0.00000000       0.00000000       0.00000000      -0.22772704
Pu       0.00000000       0.00000000       5.34444444       0.00000000       0.00000000       0.22772704
2
Properties=species:S:1:pos:R:3:forces:R:3 energy=-20.919742493961962 pbc="F F F"
Pu       0.00000000       0.00000000       0.00000000       0.00000000       0.00000000      -0.12184203
Pu       0.00000000       0.00000000       5.40404040       0.00000000       0.00000000       0.12184203
2
Properties=species:S:1:pos:R:3:forces:R:3 energy=-20.92282178452031 pbc="F F F"
Pu       0.00000000       0.00000000       0.00000000       0.00000000       0.00000000       0.02025395
Pu       0.00000000       0.00000000       5.46363636       0.00000000       0.00000000      -0.02025395
2
Properties=species:S:1:pos:R:3:forces:R:3 energy=-20.91804008929361 pbc="F F F"
Pu       0.00000000       0.00000000       0.00000000       0.00000000       0.00000000       0.12811294
Pu       0.00000000       0.00000000       5.52323232       0.00000000       0.00000000      -0.12811294
2
Properties=species:S:1:pos:R:3:forces:R:3 energy=-20.909080972706043 pbc="F F F"
Pu       0.00000000       0.00000000       0.00000000       0.00000000       0.00000000       0.16278397
Pu       0.00000000       0.00000000       5.58282828       0.00000000       0.00000000      -0.16278397
2
Properties=species:S:1:pos:R:3:forces:R:3 energy=-20.89907675641998 pbc="F F F"
Pu       0.00000000       0.00000000       0.00000000       0.00000000       0.00000000       0.17557149
Pu       0.00000000       0.00000000       5.64242424       0.00000000       0.00000000      -0.17557149
2
Properties=species:S:1:pos:R:3:forces:R:3 energy=-20.887329736351017 pbc="F F F"
Pu       0.00000000       0.00000000       0.00000000       0.00000000       0.00000000       0.22623834
Pu       0.00000000       0.00000000       5.70202020       0.00000000       0.00000000      -0.22623834
2
Properties=species:S:1:pos:R:3:forces:R:3 energy=-20.871906164137307 pbc="F F F"
Pu       0.00000000       0.00000000       0.00000000       0.00000000       0.00000000       0.28453505
Pu       0.00000000       0.00000000       5.76161616       0.00000000       0.00000000      -0.28453505
2
Properties=species:S:1:pos:R:3:forces:R:3 energy=-20.855199755018287 pbc="F F F"
Pu       0.00000000       0.00000000       0.00000000       0.00000000       0.00000000       0.25821877
Pu       0.00000000       0.00000000       5.82121212       0.00000000       0.00000000      -0.25821877
2
Properties=species:S:1:pos:R:3:forces:R:3 energy=-20.842651977279296 pbc="F F F"
Pu       0.00000000       0.00000000       0.00000000       0.00000000       0.00000000       0.15912011
Pu       0.00000000       0.00000000       5.88080808       0.00000000       0.00000000      -0.15912011
2
Properties=species:S:1:pos:R:3:forces:R:3 energy=-20.83603225394192 pbc="F F F"
Pu       0.00000000       0.00000000       0.00000000       0.00000000       0.00000000       0.06771988
Pu       0.00000000       0.00000000       5.94040404       0.00000000       0.00000000      -0.06771988
2
Properties=species:S:1:pos:R:3:forces:R:3 energy=-20.833413230588214 pbc="F F F"
Pu       0.00000000       0.00000000       0.00000000       0.00000000       0.00000000       0.03215090
Pu       0.00000000       0.00000000       6.00000000       0.00000000       0.00000000      -0.03215090
