2
Properties=species:S:1:pos:R:3:forces:R:3 energy=35824.59918074633 pbc="F F F"
Rh       0.00000000       0.00000000       0.00000000       0.00000000       0.00000000 -852334.25000000
Rh       0.00000000       0.00000000       0.10000000       0.00000000       0.00000000  852334.25000000
2
Properties=species:S:1:pos:R:3:forces:R:3 energy=10647.200743246329 pbc="F F F"
Rh       0.00000000       0.00000000       0.00000000       0.00000000       0.00000000 -188120.56250000
Rh       0.00000000       0.00000000       0.15959596       0.00000000       0.00000000  188120.56250000
2
Properties=species:S:1:pos:R:3:forces:R:3 energy=4129.90582137133 pbc="F F F"
Rh       0.00000000       0.00000000       0.00000000       0.00000000       0.00000000  -59466.71093750
Rh       0.00000000       0.00000000       0.21919192       0.00000000       0.00000000   59466.71093750
2
Properties=species:S:1:pos:R:3:forces:R:3 energy=1871.3131700104775 pbc="F F F"
Rh       0.00000000       0.00000000       0.00000000       0.00000000       0.00000000  -22984.89843750
Rh       0.00000000       0.00000000       0.27878788       0.00000000       0.00000000   22984.89843750
2
Properties=species:S:1:pos:R:3:forces:R:3 energy=947.4411607331336 pbc="F F F"
Rh       0.00000000       0.00000000       0.00000000       0.00000000       0.00000000  -10036.66601562
Rh       0.00000000       0.00000000       0.33838384       0.00000000       0.00000000   10036.66601562
2
Properties=species:S:1:pos:R:3:forces:R:3 energy=528.4795518590862 pbc="F F F"
Rh       0.00000000       0.00000000       0.00000000       0.00000000       0.00000000   -4756.04833984
Rh       0.00000000       0.00000000       0.39797980       0.00000000       0.00000000    4756.04833984
2
Properties=species:S:1:pos:R:3:forces:R:3 energy=324.1107469401169 pbc="F F F"
Rh       0.00000000       0.00000000       0.00000000       0.00000000       0.00000000   -2402.20556641
Rh       0.00000000       0.00000000       0.45757576       0.00000000       0.00000000    2402.20556641
2
Properties=species:S:1:pos:R:3:forces:R:3 energy=218.12739431066228 pbc="F F F"
Rh       0.00000000       0.00000000       0.00000000       0.00000000       0.00000000   -1287.41516113
Rh       0.00000000       0.00000000       0.51717172       0.00000000       0.00000000    1287.41516113
2
Properties=species:S:1:pos:R:3:forces:R:3 energy=159.70614497803464 pbc="F F F"
Rh       0.00000000       0.00000000       0.00000000       0.00000000       0.00000000    -735.59484863
Rh       0.00000000       0.00000000       0.57676768       0.00000000       0.00000000     735.59484863
2
Properties=species:S:1:pos:R:3:forces:R:3 energy=125.14191320051071 pbc="F F F"
Rh       0.00000000       0.00000000       0.00000000       0.00000000       0.00000000    -456.19778442
Rh       0.00000000       0.00000000       0.63636364       0.00000000       0.00000000     456.19778442
2
Properties=species:S:1:pos:R:3:forces:R:3 energy=102.61234181936305 pbc="F F F"
Rh       0.00000000       0.00000000       0.00000000       0.00000000       0.00000000    -314.73394775
Rh       0.00000000       0.00000000       0.69595960       0.00000000       0.00000000     314.73394775
2
Properties=species:S:1:pos:R:3:forces:R:3 energy=86.36765973543453 pbc="F F F"
Rh       0.00000000       0.00000000       0.00000000       0.00000000       0.00000000    -238.03518677
Rh       0.00000000       0.00000000       0.75555556       0.00000000       0.00000000     238.03518677
2
Properties=species:S:1:pos:R:3:forces:R:3 energy=73.70694688175854 pbc="F F F"
Rh       0.00000000       0.00000000       0.00000000       0.00000000       0.00000000    -188.14927673
Rh       0.00000000       0.00000000       0.81515152       0.00000000       0.00000000     188.14927673
2
Properties=species:S:1:pos:R:3:forces:R:3 energy=63.82191092010423 pbc="F F F"
Rh       0.00000000       0.00000000       0.00000000       0.00000000       0.00000000    -146.94084167
Rh       0.00000000       0.00000000       0.87474747       0.00000000       0.00000000     146.94084167
2
Properties=species:S:1:pos:R:3:forces:R:3 energy=55.718693551083106 pbc="F F F"
Rh       0.00000000       0.00000000       0.00000000       0.00000000       0.00000000    -129.16694641
Rh       0.00000000       0.00000000       0.93434343       0.00000000       0.00000000     129.16694641
2
Properties=species:S:1:pos:R:3:forces:R:3 energy=48.1632784195946 pbc="F F F"
Rh       0.00000000       0.00000000       0.00000000       0.00000000       0.00000000    -124.22144318
Rh       0.00000000       0.00000000       0.99393939       0.00000000       0.00000000     124.22144318
2
Properties=species:S:1:pos:R:3:forces:R:3 energy=40.96811983797052 pbc="F F F"
Rh       0.00000000       0.00000000       0.00000000       0.00000000       0.00000000    -118.24511719
Rh       0.00000000       0.00000000       1.05353535       0.00000000       0.00000000     118.24511719
2
Properties=species:S:1:pos:R:3:forces:R:3 energy=33.94061384263979 pbc="F F F"
Rh       0.00000000       0.00000000       0.00000000       0.00000000       0.00000000    -116.13771057
Rh       0.00000000       0.00000000       1.11313131       0.00000000       0.00000000     116.13771057
2
Properties=species:S:1:pos:R:3:forces:R:3 energy=27.41302829620318 pbc="F F F"
Rh       0.00000000       0.00000000       0.00000000       0.00000000       0.00000000    -100.59747314
Rh       0.00000000       0.00000000       1.17272727       0.00000000       0.00000000     100.59747314
2
Properties=species:S:1:pos:R:3:forces:R:3 energy=22.043791542854827 pbc="F F F"
Rh       0.00000000       0.00000000       0.00000000       0.00000000       0.00000000     -80.85527039
Rh       0.00000000       0.00000000       1.23232323       0.00000000       0.00000000      80.85527039
2
Properties=species:S:1:pos:R:3:forces:R:3 energy=17.523953316791495 pbc="F F F"
Rh       0.00000000       0.00000000       0.00000000       0.00000000       0.00000000     -72.37769318
Rh       0.00000000       0.00000000       1.29191919       0.00000000       0.00000000      72.37769318
2
Properties=species:S:1:pos:R:3:forces:R:3 energy=13.407468879871878 pbc="F F F"
Rh       0.00000000       0.00000000       0.00000000       0.00000000       0.00000000     -64.74487305
Rh       0.00000000       0.00000000       1.35151515       0.00000000       0.00000000      64.74487305
2
Properties=species:S:1:pos:R:3:forces:R:3 energy=9.929345752586586 pbc="F F F"
Rh       0.00000000       0.00000000       0.00000000       0.00000000       0.00000000     -51.57986832
Rh       0.00000000       0.00000000       1.41111111       0.00000000       0.00000000      51.57986832
2
Properties=species:S:1:pos:R:3:forces:R:3 energy=7.202527837653387 pbc="F F F"
Rh       0.00000000       0.00000000       0.00000000       0.00000000       0.00000000     -40.99491501
Rh       0.00000000       0.00000000       1.47070707       0.00000000       0.00000000      40.99491501
2
Properties=species:S:1:pos:R:3:forces:R:3 energy=4.923009784641214 pbc="F F F"
Rh       0.00000000       0.00000000       0.00000000       0.00000000       0.00000000     -36.15957260
Rh       0.00000000       0.00000000       1.53030303       0.00000000       0.00000000      36.15957260
2
Properties=species:S:1:pos:R:3:forces:R:3 energy=2.862703324685674 pbc="F F F"
Rh       0.00000000       0.00000000       0.00000000       0.00000000       0.00000000     -32.96149445
Rh       0.00000000       0.00000000       1.58989899       0.00000000       0.00000000      32.96149445
2
Properties=species:S:1:pos:R:3:forces:R:3 energy=1.005719349357826 pbc="F F F"
Rh       0.00000000       0.00000000       0.00000000       0.00000000       0.00000000     -29.26380157
Rh       0.00000000       0.00000000       1.64949495       0.00000000       0.00000000      29.26380157
2
Properties=species:S:1:pos:R:3:forces:R:3 energy=-0.6194913988723686 pbc="F F F"
Rh       0.00000000       0.00000000       0.00000000       0.00000000       0.00000000     -25.27313042
Rh       0.00000000       0.00000000       1.70909091       0.00000000       0.00000000      25.27313042
2
Properties=species:S:1:pos:R:3:forces:R:3 energy=-2.009797165255525 pbc="F F F"
Rh       0.00000000       0.00000000       0.00000000       0.00000000       0.00000000     -21.42804146
Rh       0.00000000       0.00000000       1.76868687       0.00000000       0.00000000      21.42804146
2
Properties=species:S:1:pos:R:3:forces:R:3 energy=-3.178634383612993 pbc="F F F"
Rh       0.00000000       0.00000000       0.00000000       0.00000000       0.00000000     -17.83155060
Rh       0.00000000       0.00000000       1.82828283       0.00000000       0.00000000      17.83155060
2
Properties=species:S:1:pos:R:3:forces:R:3 energy=-4.137612970039336 pbc="F F F"
Rh       0.00000000       0.00000000       0.00000000       0.00000000       0.00000000     -14.35993195
Rh       0.00000000       0.00000000       1.88787879       0.00000000       0.00000000      14.35993195
2
Properties=species:S:1:pos:R:3:forces:R:3 energy=-4.890800208798125 pbc="F F F"
Rh       0.00000000       0.00000000       0.00000000       0.00000000       0.00000000     -10.92422867
Rh       0.00000000       0.00000000       1.94747475       0.00000000       0.00000000      10.92422867
2
Properties=species:S:1:pos:R:3:forces:R:3 energy=-5.44202780160657 pbc="F F F"
Rh       0.00000000       0.00000000       0.00000000       0.00000000       0.00000000      -7.60911369
Rh       0.00000000       0.00000000       2.00707071       0.00000000       0.00000000       7.60911369
2
Properties=species:S:1:pos:R:3:forces:R:3 energy=-5.803770218741645 pbc="F F F"
Rh       0.00000000       0.00000000       0.00000000       0.00000000       0.00000000      -4.59583759
Rh       0.00000000       0.00000000       2.06666667       0.00000000       0.00000000       4.59583759
2
Properties=species:S:1:pos:R:3:forces:R:3 energy=-5.998891003778684 pbc="F F F"
Rh       0.00000000       0.00000000       0.00000000       0.00000000       0.00000000      -2.03702855
Rh       0.00000000       0.00000000       2.12626263       0.00000000       0.00000000       2.03702855
2
Properties=species:S:1:pos:R:3:forces:R:3 energy=-6.057278742157816 pbc="F F F"
Rh       0.00000000       0.00000000       0.00000000       0.00000000       0.00000000      -0.01553813
Rh       0.00000000       0.00000000       2.18585859       0.00000000       0.00000000       0.01553813
2
Properties=species:S:1:pos:R:3:forces:R:3 energy=-6.011927533148342 pbc="F F F"
Rh       0.00000000       0.00000000       0.00000000       0.00000000       0.00000000       1.44450712
Rh       0.00000000       0.00000000       2.24545455       0.00000000       0.00000000      -1.44450712
2
Properties=species:S:1:pos:R:3:forces:R:3 energy=-5.895811479069312 pbc="F F F"
Rh       0.00000000       0.00000000       0.00000000       0.00000000       0.00000000       2.36693478
Rh       0.00000000       0.00000000       2.30505051       0.00000000       0.00000000      -2.36693478
2
Properties=species:S:1:pos:R:3:forces:R:3 energy=-5.739194987034353 pbc="F F F"
Rh       0.00000000       0.00000000       0.00000000       0.00000000       0.00000000       2.81791830
Rh       0.00000000       0.00000000       2.36464646       0.00000000       0.00000000      -2.81791830
2
Properties=species:S:1:pos:R:3:forces:R:3 energy=-5.567363440378287 pbc="F F F"
Rh       0.00000000       0.00000000       0.00000000       0.00000000       0.00000000       2.89582682
Rh       0.00000000       0.00000000       2.42424242       0.00000000       0.00000000      -2.89582682
2
Properties=species:S:1:pos:R:3:forces:R:3 energy=-5.3991186402183695 pbc="F F F"
Rh       0.00000000       0.00000000       0.00000000       0.00000000       0.00000000       2.71808219
Rh       0.00000000       0.00000000       2.48383838       0.00000000       0.00000000      -2.71808219
2
Properties=species:S:1:pos:R:3:forces:R:3 energy=-5.245993669427238 pbc="F F F"
Rh       0.00000000       0.00000000       0.00000000       0.00000000       0.00000000       2.40909886
Rh       0.00000000       0.00000000       2.54343434       0.00000000       0.00000000      -2.40909886
2
Properties=species:S:1:pos:R:3:forces:R:3 energy=-5.112236672730141 pbc="F F F"
Rh       0.00000000       0.00000000       0.00000000       0.00000000       0.00000000       2.08617091
Rh       0.00000000       0.00000000       2.60303030       0.00000000       0.00000000      -2.08617091
2
Properties=species:S:1:pos:R:3:forces:R:3 energy=-4.995729209239777 pbc="F F F"
Rh       0.00000000       0.00000000       0.00000000       0.00000000       0.00000000       1.84288108
Rh       0.00000000       0.00000000       2.66262626       0.00000000       0.00000000      -1.84288108
2
Properties=species:S:1:pos:R:3:forces:R:3 energy=-4.889927967516475 pbc="F F F"
Rh       0.00000000       0.00000000       0.00000000       0.00000000       0.00000000       1.73070645
Rh       0.00000000       0.00000000       2.72222222       0.00000000       0.00000000      -1.73070645
2
Properties=species:S:1:pos:R:3:forces:R:3 energy=-4.78706872784691 pbc="F F F"
Rh       0.00000000       0.00000000       0.00000000       0.00000000       0.00000000       1.73590541
Rh       0.00000000       0.00000000       2.78181818       0.00000000       0.00000000      -1.73590541
2
Properties=species:S:1:pos:R:3:forces:R:3 energy=-4.682051753491757 pbc="F F F"
Rh       0.00000000       0.00000000       0.00000000       0.00000000       0.00000000       1.79033101
Rh       0.00000000       0.00000000       2.84141414       0.00000000       0.00000000      -1.79033101
2
Properties=species:S:1:pos:R:3:forces:R:3 energy=-4.574014839369003 pbc="F F F"
Rh       0.00000000       0.00000000       0.00000000       0.00000000       0.00000000       1.82900155
Rh       0.00000000       0.00000000       2.90101010       0.00000000       0.00000000      -1.82900155
2
Properties=species:S:1:pos:R:3:forces:R:3 energy=-4.465028141652765 pbc="F F F"
Rh       0.00000000       0.00000000       0.00000000       0.00000000       0.00000000       1.81930864
Rh       0.00000000       0.00000000       2.96060606       0.00000000       0.00000000      -1.81930864
2
Properties=species:S:1:pos:R:3:forces:R:3 energy=-4.358227220875303 pbc="F F F"
Rh       0.00000000       0.00000000       0.00000000       0.00000000       0.00000000       1.75692558
Rh       0.00000000       0.00000000       3.02020202       0.00000000       0.00000000      -1.75692558
2
Properties=species:S:1:pos:R:3:forces:R:3 energy=-4.2563328426310925 pbc="F F F"
Rh       0.00000000       0.00000000       0.00000000       0.00000000       0.00000000       1.65886414
Rh       0.00000000       0.00000000       3.07979798       0.00000000       0.00000000      -1.65886414
2
Properties=species:S:1:pos:R:3:forces:R:3 energy=-4.160670551640554 pbc="F F F"
Rh       0.00000000       0.00000000       0.00000000       0.00000000       0.00000000       1.55226433
Rh       0.00000000       0.00000000       3.13939394       0.00000000       0.00000000      -1.55226433
2
Properties=species:S:1:pos:R:3:forces:R:3 energy=-4.071038581535565 pbc="F F F"
Rh       0.00000000       0.00000000       0.00000000       0.00000000       0.00000000       1.45901954
Rh       0.00000000       0.00000000       3.19898990       0.00000000       0.00000000      -1.45901954
2
Properties=species:S:1:pos:R:3:forces:R:3 energy=-3.986361659532869 pbc="F F F"
Rh       0.00000000       0.00000000       0.00000000       0.00000000       0.00000000       1.38568580
Rh       0.00000000       0.00000000       3.25858586       0.00000000       0.00000000      -1.38568580
2
Properties=species:S:1:pos:R:3:forces:R:3 energy=-3.9056355162118344 pbc="F F F"
Rh       0.00000000       0.00000000       0.00000000       0.00000000       0.00000000       1.32426000
Rh       0.00000000       0.00000000       3.31818182       0.00000000       0.00000000      -1.32426000
2
Properties=species:S:1:pos:R:3:forces:R:3 energy=-3.8285648052854815 pbc="F F F"
Rh       0.00000000       0.00000000       0.00000000       0.00000000       0.00000000       1.26075947
Rh       0.00000000       0.00000000       3.37777778       0.00000000       0.00000000      -1.26075947
2
Properties=species:S:1:pos:R:3:forces:R:3 energy=-3.7556171539340797 pbc="F F F"
Rh       0.00000000       0.00000000       0.00000000       0.00000000       0.00000000       1.18478835
Rh       0.00000000       0.00000000       3.43737374       0.00000000       0.00000000      -1.18478835
2
Properties=species:S:1:pos:R:3:forces:R:3 energy=-3.6876303440214553 pbc="F F F"
Rh       0.00000000       0.00000000       0.00000000       0.00000000       0.00000000       1.09482908
Rh       0.00000000       0.00000000       3.49696970       0.00000000       0.00000000      -1.09482908
2
Properties=species:S:1:pos:R:3:forces:R:3 energy=-3.6252678360883124 pbc="F F F"
Rh       0.00000000       0.00000000       0.00000000       0.00000000       0.00000000       0.99766594
Rh       0.00000000       0.00000000       3.55656566       0.00000000       0.00000000      -0.99766594
2
Properties=species:S:1:pos:R:3:forces:R:3 energy=-3.5686502755992526 pbc="F F F"
Rh       0.00000000       0.00000000       0.00000000       0.00000000       0.00000000       0.90381098
Rh       0.00000000       0.00000000       3.61616162       0.00000000       0.00000000      -0.90381098
2
Properties=species:S:1:pos:R:3:forces:R:3 energy=-3.517291345673708 pbc="F F F"
Rh       0.00000000       0.00000000       0.00000000       0.00000000       0.00000000       0.82236415
Rh       0.00000000       0.00000000       3.67575758       0.00000000       0.00000000      -0.82236415
2
Properties=species:S:1:pos:R:3:forces:R:3 energy=-3.4702894896376626 pbc="F F F"
Rh       0.00000000       0.00000000       0.00000000       0.00000000       0.00000000       0.75796759
Rh       0.00000000       0.00000000       3.73535354       0.00000000       0.00000000      -0.75796759
2
Properties=species:S:1:pos:R:3:forces:R:3 energy=-3.4266101352648675 pbc="F F F"
Rh       0.00000000       0.00000000       0.00000000       0.00000000       0.00000000       0.71046042
Rh       0.00000000       0.00000000       3.79494949       0.00000000       0.00000000      -0.71046042
2
Properties=species:S:1:pos:R:3:forces:R:3 energy=-3.385341406206524 pbc="F F F"
Rh       0.00000000       0.00000000       0.00000000       0.00000000       0.00000000       0.67630494
Rh       0.00000000       0.00000000       3.85454545       0.00000000       0.00000000      -0.67630494
2
Properties=species:S:1:pos:R:3:forces:R:3 energy=-3.345834324787081 pbc="F F F"
Rh       0.00000000       0.00000000       0.00000000       0.00000000       0.00000000       0.65051651
Rh       0.00000000       0.00000000       3.91414141       0.00000000       0.00000000      -0.65051651
2
Properties=species:S:1:pos:R:3:forces:R:3 energy=-3.3077349731698407 pbc="F F F"
Rh       0.00000000       0.00000000       0.00000000       0.00000000       0.00000000       0.62830114
Rh       0.00000000       0.00000000       3.97373737       0.00000000       0.00000000      -0.62830114
2
Properties=species:S:1:pos:R:3:forces:R:3 energy=-3.2709472367021717 pbc="F F F"
Rh       0.00000000       0.00000000       0.00000000       0.00000000       0.00000000       0.60606009
Rh       0.00000000       0.00000000       4.03333333       0.00000000       0.00000000      -0.60606009
2
Properties=species:S:1:pos:R:3:forces:R:3 energy=-3.2355394071889476 pbc="F F F"
Rh       0.00000000       0.00000000       0.00000000       0.00000000       0.00000000       0.58175337
Rh       0.00000000       0.00000000       4.09292929       0.00000000       0.00000000      -0.58175337
2
Properties=species:S:1:pos:R:3:forces:R:3 energy=-3.2016602065316424 pbc="F F F"
Rh       0.00000000       0.00000000       0.00000000       0.00000000       0.00000000       0.55478102
Rh       0.00000000       0.00000000       4.15252525       0.00000000       0.00000000      -0.55478102
2
Properties=species:S:1:pos:R:3:forces:R:3 energy=-3.169460108597228 pbc="F F F"
Rh       0.00000000       0.00000000       0.00000000       0.00000000       0.00000000       0.52553439
Rh       0.00000000       0.00000000       4.21212121       0.00000000       0.00000000      -0.52553439
2
Properties=species:S:1:pos:R:3:forces:R:3 energy=-3.1390488857039007 pbc="F F F"
Rh       0.00000000       0.00000000       0.00000000       0.00000000       0.00000000       0.49486715
Rh       0.00000000       0.00000000       4.27171717       0.00000000       0.00000000      -0.49486715
2
Properties=species:S:1:pos:R:3:forces:R:3 energy=-3.110486679427703 pbc="F F F"
Rh       0.00000000       0.00000000       0.00000000       0.00000000       0.00000000       0.46363458
Rh       0.00000000       0.00000000       4.33131313       0.00000000       0.00000000      -0.46363458
2
Properties=species:S:1:pos:R:3:forces:R:3 energy=-3.083787317119792 pbc="F F F"
Rh       0.00000000       0.00000000       0.00000000       0.00000000       0.00000000       0.43240154
Rh       0.00000000       0.00000000       4.39090909       0.00000000       0.00000000      -0.43240154
2
Properties=species:S:1:pos:R:3:forces:R:3 energy=-3.0589438868827648 pbc="F F F"
Rh       0.00000000       0.00000000       0.00000000       0.00000000       0.00000000       0.40133521
Rh       0.00000000       0.00000000       4.45050505       0.00000000       0.00000000      -0.40133521
2
Properties=species:S:1:pos:R:3:forces:R:3 energy=-3.0359516804391475 pbc="F F F"
Rh       0.00000000       0.00000000       0.00000000       0.00000000       0.00000000       0.37024662
Rh       0.00000000       0.00000000       4.51010101       0.00000000       0.00000000      -0.37024662
2
Properties=species:S:1:pos:R:3:forces:R:3 energy=-3.0148226741401962 pbc="F F F"
Rh       0.00000000       0.00000000       0.00000000       0.00000000       0.00000000       0.33868694
Rh       0.00000000       0.00000000       4.56969697       0.00000000       0.00000000      -0.33868694
2
Properties=species:S:1:pos:R:3:forces:R:3 energy=-2.9956027584600324 pbc="F F F"
Rh       0.00000000       0.00000000       0.00000000       0.00000000       0.00000000       0.30610561
Rh       0.00000000       0.00000000       4.62929293       0.00000000       0.00000000      -0.30610561
2
Properties=species:S:1:pos:R:3:forces:R:3 energy=-2.9783687099100398 pbc="F F F"
Rh       0.00000000       0.00000000       0.00000000       0.00000000       0.00000000       0.27199119
Rh       0.00000000       0.00000000       4.68888889       0.00000000       0.00000000      -0.27199119
2
Properties=species:S:1:pos:R:3:forces:R:3 energy=-2.9632206788537534 pbc="F F F"
Rh       0.00000000       0.00000000       0.00000000       0.00000000       0.00000000       0.23603529
Rh       0.00000000       0.00000000       4.74848485       0.00000000       0.00000000      -0.23603529
2
Properties=species:S:1:pos:R:3:forces:R:3 energy=-2.950270682890536 pbc="F F F"
Rh       0.00000000       0.00000000       0.00000000       0.00000000       0.00000000       0.19830996
Rh       0.00000000       0.00000000       4.80808081       0.00000000       0.00000000      -0.19830996
2
Properties=species:S:1:pos:R:3:forces:R:3 energy=-2.939606312546661 pbc="F F F"
Rh       0.00000000       0.00000000       0.00000000       0.00000000       0.00000000       0.15947437
Rh       0.00000000       0.00000000       4.86767677       0.00000000       0.00000000      -0.15947437
2
Properties=species:S:1:pos:R:3:forces:R:3 energy=-2.9312557447647225 pbc="F F F"
Rh       0.00000000       0.00000000       0.00000000       0.00000000       0.00000000       0.12098721
Rh       0.00000000       0.00000000       4.92727273       0.00000000       0.00000000      -0.12098721
2
Properties=species:S:1:pos:R:3:forces:R:3 energy=-2.9251332020698215 pbc="F F F"
Rh       0.00000000       0.00000000       0.00000000       0.00000000       0.00000000       0.08515288
Rh       0.00000000       0.00000000       4.98686869       0.00000000       0.00000000      -0.08515288
2
Properties=species:S:1:pos:R:3:forces:R:3 energy=-2.9209965900902155 pbc="F F F"
Rh       0.00000000       0.00000000       0.00000000       0.00000000       0.00000000       0.05484127
Rh       0.00000000       0.00000000       5.04646465       0.00000000       0.00000000      -0.05484127
2
Properties=species:S:1:pos:R:3:forces:R:3 energy=-2.918435262182054 pbc="F F F"
Rh       0.00000000       0.00000000       0.00000000       0.00000000       0.00000000       0.03261658
Rh       0.00000000       0.00000000       5.10606061       0.00000000       0.00000000      -0.03261658
2
Properties=species:S:1:pos:R:3:forces:R:3 energy=-2.9169267368767082 pbc="F F F"
Rh       0.00000000       0.00000000       0.00000000       0.00000000       0.00000000       0.01947781
Rh       0.00000000       0.00000000       5.16565657       0.00000000       0.00000000      -0.01947781
2
Properties=species:S:1:pos:R:3:forces:R:3 energy=-2.91596330448192 pbc="F F F"
Rh       0.00000000       0.00000000       0.00000000       0.00000000       0.00000000       0.01382160
Rh       0.00000000       0.00000000       5.22525253       0.00000000       0.00000000      -0.01382160
2
Properties=species:S:1:pos:R:3:forces:R:3 energy=-2.9152041888204216 pbc="F F F"
Rh       0.00000000       0.00000000       0.00000000       0.00000000       0.00000000       0.01198464
Rh       0.00000000       0.00000000       5.28484848       0.00000000       0.00000000      -0.01198464
2
Properties=species:S:1:pos:R:3:forces:R:3 energy=-2.9145076410393544 pbc="F F F"
Rh       0.00000000       0.00000000       0.00000000       0.00000000       0.00000000       0.01176187
Rh       0.00000000       0.00000000       5.34444444       0.00000000       0.00000000      -0.01176187
2
Properties=species:S:1:pos:R:3:forces:R:3 energy=-2.9136920758722313 pbc="F F F"
Rh       0.00000000       0.00000000       0.00000000       0.00000000       0.00000000       0.01720215
Rh       0.00000000       0.00000000       5.40404040       0.00000000       0.00000000      -0.01720215
2
Properties=species:S:1:pos:R:3:forces:R:3 energy=-2.91224221398859 pbc="F F F"
Rh       0.00000000       0.00000000       0.00000000       0.00000000       0.00000000       0.03268842
Rh       0.00000000       0.00000000       5.46363636       0.00000000       0.00000000      -0.03268842
2
Properties=species:S:1:pos:R:3:forces:R:3 energy=-2.90984366238176 pbc="F F F"
Rh       0.00000000       0.00000000       0.00000000       0.00000000       0.00000000       0.04581990
Rh       0.00000000       0.00000000       5.52323232       0.00000000       0.00000000      -0.04581990
2
Properties=species:S:1:pos:R:3:forces:R:3 energy=-2.907072763856334 pbc="F F F"
Rh       0.00000000       0.00000000       0.00000000       0.00000000       0.00000000       0.04525743
Rh       0.00000000       0.00000000       5.58282828       0.00000000       0.00000000      -0.04525743
2
Properties=species:S:1:pos:R:3:forces:R:3 energy=-2.9045213592564654 pbc="F F F"
Rh       0.00000000       0.00000000       0.00000000       0.00000000       0.00000000       0.04104279
Rh       0.00000000       0.00000000       5.64242424       0.00000000       0.00000000      -0.04104279
2
Properties=species:S:1:pos:R:3:forces:R:3 energy=-2.9020172901768233 pbc="F F F"
Rh       0.00000000       0.00000000       0.00000000       0.00000000       0.00000000       0.04431307
Rh       0.00000000       0.00000000       5.70202020       0.00000000       0.00000000      -0.04431307
2
Properties=species:S:1:pos:R:3:forces:R:3 energy=-2.8992254537844198 pbc="F F F"
Rh       0.00000000       0.00000000       0.00000000       0.00000000       0.00000000       0.04795414
Rh       0.00000000       0.00000000       5.76161616       0.00000000       0.00000000      -0.04795414
2
Properties=species:S:1:pos:R:3:forces:R:3 energy=-2.8965860147734177 pbc="F F F"
Rh       0.00000000       0.00000000       0.00000000       0.00000000       0.00000000       0.03843968
Rh       0.00000000       0.00000000       5.82121212       0.00000000       0.00000000      -0.03843968
2
Properties=species:S:1:pos:R:3:forces:R:3 energy=-2.8947386973565115 pbc="F F F"
Rh       0.00000000       0.00000000       0.00000000       0.00000000       0.00000000       0.02416781
Rh       0.00000000       0.00000000       5.88080808       0.00000000       0.00000000      -0.02416781
2
Properties=species:S:1:pos:R:3:forces:R:3 energy=-2.893587213337507 pbc="F F F"
Rh       0.00000000       0.00000000       0.00000000       0.00000000       0.00000000       0.01539779
Rh       0.00000000       0.00000000       5.94040404       0.00000000       0.00000000      -0.01539779
2
Properties=species:S:1:pos:R:3:forces:R:3 energy=-2.892791904587837 pbc="F F F"
Rh       0.00000000       0.00000000       0.00000000       0.00000000       0.00000000       0.01216704
Rh       0.00000000       0.00000000       6.00000000       0.00000000       0.00000000      -0.01216704
