2
Properties=species:S:1:pos:R:3:forces:R:3 energy=27335.51187592823 pbc="F F F"
Sr       0.00000000       0.00000000       0.00000000       0.00000000       0.00000000 -638796.56250000
Sr       0.00000000       0.00000000       0.10000000       0.00000000       0.00000000  638796.56250000
2
Properties=species:S:1:pos:R:3:forces:R:3 energy=8285.600743115729 pbc="F F F"
Sr       0.00000000       0.00000000       0.00000000       0.00000000       0.00000000 -144308.31250000
Sr       0.00000000       0.00000000       0.15959596       0.00000000       0.00000000  144308.31250000
2
Properties=species:S:1:pos:R:3:forces:R:3 energy=3250.3797958501036 pbc="F F F"
Sr       0.00000000       0.00000000       0.00000000       0.00000000       0.00000000  -46391.66796875
Sr       0.00000000       0.00000000       0.21919192       0.00000000       0.00000000   46391.66796875
2
Properties=species:S:1:pos:R:3:forces:R:3 energy=1476.8347519047911 pbc="F F F"
Sr       0.00000000       0.00000000       0.00000000       0.00000000       0.00000000  -18211.53515625
Sr       0.00000000       0.00000000       0.27878788       0.00000000       0.00000000   18211.53515625
2
Properties=species:S:1:pos:R:3:forces:R:3 energy=739.8168075688537 pbc="F F F"
Sr       0.00000000       0.00000000       0.00000000       0.00000000       0.00000000   -8078.58691406
Sr       0.00000000       0.00000000       0.33838384       0.00000000       0.00000000    8078.58691406
2
Properties=species:S:1:pos:R:3:forces:R:3 energy=400.3861435063537 pbc="F F F"
Sr       0.00000000       0.00000000       0.00000000       0.00000000       0.00000000   -3883.30346680
Sr       0.00000000       0.00000000       0.39797980       0.00000000       0.00000000    3883.30346680
2
Properties=species:S:1:pos:R:3:forces:R:3 energy=232.74699862156402 pbc="F F F"
Sr       0.00000000       0.00000000       0.00000000       0.00000000       0.00000000   -1978.95983887
Sr       0.00000000       0.00000000       0.45757576       0.00000000       0.00000000    1978.95983887
2
Properties=species:S:1:pos:R:3:forces:R:3 energy=145.4381454784856 pbc="F F F"
Sr       0.00000000       0.00000000       0.00000000       0.00000000       0.00000000   -1057.39807129
Sr       0.00000000       0.00000000       0.51717172       0.00000000       0.00000000    1057.39807129
2
Properties=species:S:1:pos:R:3:forces:R:3 energy=97.88242802923082 pbc="F F F"
Sr       0.00000000       0.00000000       0.00000000       0.00000000       0.00000000    -589.28729248
Sr       0.00000000       0.00000000       0.57676768       0.00000000       0.00000000     589.28729248
2
Properties=species:S:1:pos:R:3:forces:R:3 energy=70.88928688025699 pbc="F F F"
Sr       0.00000000       0.00000000       0.00000000       0.00000000       0.00000000    -341.95660400
Sr       0.00000000       0.00000000       0.63636364       0.00000000       0.00000000     341.95660400
2
Properties=species:S:1:pos:R:3:forces:R:3 energy=54.92756360330543 pbc="F F F"
Sr       0.00000000       0.00000000       0.00000000       0.00000000       0.00000000    -206.90878296
Sr       0.00000000       0.00000000       0.69595960       0.00000000       0.00000000     206.90878296
2
Properties=species:S:1:pos:R:3:forces:R:3 energy=45.06466771375699 pbc="F F F"
Sr       0.00000000       0.00000000       0.00000000       0.00000000       0.00000000    -131.20893860
Sr       0.00000000       0.00000000       0.75555556       0.00000000       0.00000000     131.20893860
2
Properties=species:S:1:pos:R:3:forces:R:3 energy=38.65008652897046 pbc="F F F"
Sr       0.00000000       0.00000000       0.00000000       0.00000000       0.00000000     -88.04817200
Sr       0.00000000       0.00000000       0.81515152       0.00000000       0.00000000      88.04817200
2
Properties=species:S:1:pos:R:3:forces:R:3 energy=34.20603303112358 pbc="F F F"
Sr       0.00000000       0.00000000       0.00000000       0.00000000       0.00000000     -63.41725540
Sr       0.00000000       0.00000000       0.87474747       0.00000000       0.00000000      63.41725540
2
Properties=species:S:1:pos:R:3:forces:R:3 energy=30.873399299710098 pbc="F F F"
Sr       0.00000000       0.00000000       0.00000000       0.00000000       0.00000000     -49.86941147
Sr       0.00000000       0.00000000       0.93434343       0.00000000       0.00000000      49.86941147
2
Properties=species:S:1:pos:R:3:forces:R:3 energy=28.11956012369446 pbc="F F F"
Sr       0.00000000       0.00000000       0.00000000       0.00000000       0.00000000     -43.55615616
Sr       0.00000000       0.00000000       0.99393939       0.00000000       0.00000000      43.55615616
2
Properties=species:S:1:pos:R:3:forces:R:3 energy=25.577560731288095 pbc="F F F"
Sr       0.00000000       0.00000000       0.00000000       0.00000000       0.00000000     -42.48141098
Sr       0.00000000       0.00000000       1.05353535       0.00000000       0.00000000      42.48141098
2
Properties=species:S:1:pos:R:3:forces:R:3 energy=22.998625684662784 pbc="F F F"
Sr       0.00000000       0.00000000       0.00000000       0.00000000       0.00000000     -44.17651367
Sr       0.00000000       0.00000000       1.11313131       0.00000000       0.00000000      44.17651367
2
Properties=species:S:1:pos:R:3:forces:R:3 energy=20.35816737793551 pbc="F F F"
Sr       0.00000000       0.00000000       0.00000000       0.00000000       0.00000000     -43.64001465
Sr       0.00000000       0.00000000       1.17272727       0.00000000       0.00000000      43.64001465
2
Properties=species:S:1:pos:R:3:forces:R:3 energy=17.891094919408616 pbc="F F F"
Sr       0.00000000       0.00000000       0.00000000       0.00000000       0.00000000     -38.60220718
Sr       0.00000000       0.00000000       1.23232323       0.00000000       0.00000000      38.60220718
2
Properties=species:S:1:pos:R:3:forces:R:3 energy=15.797347140211793 pbc="F F F"
Sr       0.00000000       0.00000000       0.00000000       0.00000000       0.00000000     -31.45881081
Sr       0.00000000       0.00000000       1.29191919       0.00000000       0.00000000      31.45881081
2
Properties=species:S:1:pos:R:3:forces:R:3 energy=14.144461398769447 pbc="F F F"
Sr       0.00000000       0.00000000       0.00000000       0.00000000       0.00000000     -24.20021820
Sr       0.00000000       0.00000000       1.35151515       0.00000000       0.00000000      24.20021820
2
Properties=species:S:1:pos:R:3:forces:R:3 energy=12.87589346721527 pbc="F F F"
Sr       0.00000000       0.00000000       0.00000000       0.00000000       0.00000000     -18.70729446
Sr       0.00000000       0.00000000       1.41111111       0.00000000       0.00000000      18.70729446
2
Properties=species:S:1:pos:R:3:forces:R:3 energy=11.875058643744962 pbc="F F F"
Sr       0.00000000       0.00000000       0.00000000       0.00000000       0.00000000     -15.25598145
Sr       0.00000000       0.00000000       1.47070707       0.00000000       0.00000000      15.25598145
2
Properties=species:S:1:pos:R:3:forces:R:3 energy=11.007588158587035 pbc="F F F"
Sr       0.00000000       0.00000000       0.00000000       0.00000000       0.00000000     -14.22693062
Sr       0.00000000       0.00000000       1.53030303       0.00000000       0.00000000      14.22693062
2
Properties=species:S:1:pos:R:3:forces:R:3 energy=10.159864184399881 pbc="F F F"
Sr       0.00000000       0.00000000       0.00000000       0.00000000       0.00000000     -14.14585590
Sr       0.00000000       0.00000000       1.58989899       0.00000000       0.00000000      14.14585590
2
Properties=species:S:1:pos:R:3:forces:R:3 energy=9.346935853951857 pbc="F F F"
Sr       0.00000000       0.00000000       0.00000000       0.00000000       0.00000000     -12.89496422
Sr       0.00000000       0.00000000       1.64949495       0.00000000       0.00000000      12.89496422
2
Properties=species:S:1:pos:R:3:forces:R:3 energy=8.641988273668153 pbc="F F F"
Sr       0.00000000       0.00000000       0.00000000       0.00000000       0.00000000     -10.69652939
Sr       0.00000000       0.00000000       1.70909091       0.00000000       0.00000000      10.69652939
2
Properties=species:S:1:pos:R:3:forces:R:3 energy=8.071555676109602 pbc="F F F"
Sr       0.00000000       0.00000000       0.00000000       0.00000000       0.00000000      -8.50195408
Sr       0.00000000       0.00000000       1.76868687       0.00000000       0.00000000       8.50195408
2
Properties=species:S:1:pos:R:3:forces:R:3 energy=7.617419257204908 pbc="F F F"
Sr       0.00000000       0.00000000       0.00000000       0.00000000       0.00000000      -6.86835909
Sr       0.00000000       0.00000000       1.82828283       0.00000000       0.00000000       6.86835909
2
Properties=species:S:1:pos:R:3:forces:R:3 energy=7.234291159099766 pbc="F F F"
Sr       0.00000000       0.00000000       0.00000000       0.00000000       0.00000000      -6.15971708
Sr       0.00000000       0.00000000       1.88787879       0.00000000       0.00000000       6.15971708
2
Properties=species:S:1:pos:R:3:forces:R:3 energy=6.86379098074451 pbc="F F F"
Sr       0.00000000       0.00000000       0.00000000       0.00000000       0.00000000      -6.41515255
Sr       0.00000000       0.00000000       1.94747475       0.00000000       0.00000000       6.41515255
2
Properties=species:S:1:pos:R:3:forces:R:3 energy=6.457221535624482 pbc="F F F"
Sr       0.00000000       0.00000000       0.00000000       0.00000000       0.00000000      -7.29297733
Sr       0.00000000       0.00000000       2.00707071       0.00000000       0.00000000       7.29297733
2
Properties=species:S:1:pos:R:3:forces:R:3 energy=5.991490343102122 pbc="F F F"
Sr       0.00000000       0.00000000       0.00000000       0.00000000       0.00000000      -8.32900429
Sr       0.00000000       0.00000000       2.06666667       0.00000000       0.00000000       8.32900429
2
Properties=species:S:1:pos:R:3:forces:R:3 energy=5.4682004076622315 pbc="F F F"
Sr       0.00000000       0.00000000       0.00000000       0.00000000       0.00000000      -9.18353558
Sr       0.00000000       0.00000000       2.12626263       0.00000000       0.00000000       9.18353558
2
Properties=species:S:1:pos:R:3:forces:R:3 energy=4.903977450444936 pbc="F F F"
Sr       0.00000000       0.00000000       0.00000000       0.00000000       0.00000000      -9.68415165
Sr       0.00000000       0.00000000       2.18585859       0.00000000       0.00000000       9.68415165
2
Properties=species:S:1:pos:R:3:forces:R:3 energy=4.322445381437035 pbc="F F F"
Sr       0.00000000       0.00000000       0.00000000       0.00000000       0.00000000      -9.75786686
Sr       0.00000000       0.00000000       2.24545455       0.00000000       0.00000000       9.75786686
2
Properties=species:S:1:pos:R:3:forces:R:3 energy=3.7495932039230833 pbc="F F F"
Sr       0.00000000       0.00000000       0.00000000       0.00000000       0.00000000      -9.39748859
Sr       0.00000000       0.00000000       2.30505051       0.00000000       0.00000000       9.39748859
2
Properties=species:S:1:pos:R:3:forces:R:3 energy=3.209698113803552 pbc="F F F"
Sr       0.00000000       0.00000000       0.00000000       0.00000000       0.00000000      -8.66882420
Sr       0.00000000       0.00000000       2.36464646       0.00000000       0.00000000       8.66882420
2
Properties=species:S:1:pos:R:3:forces:R:3 energy=2.721144397322634 pbc="F F F"
Sr       0.00000000       0.00000000       0.00000000       0.00000000       0.00000000      -7.69879341
Sr       0.00000000       0.00000000       2.42424242       0.00000000       0.00000000       7.69879341
2
Properties=species:S:1:pos:R:3:forces:R:3 energy=2.2939216352256464 pbc="F F F"
Sr       0.00000000       0.00000000       0.00000000       0.00000000       0.00000000      -6.63469219
Sr       0.00000000       0.00000000       2.48383838       0.00000000       0.00000000       6.63469219
2
Properties=species:S:1:pos:R:3:forces:R:3 energy=1.9296130709338064 pbc="F F F"
Sr       0.00000000       0.00000000       0.00000000       0.00000000       0.00000000      -5.60590029
Sr       0.00000000       0.00000000       2.54343434       0.00000000       0.00000000       5.60590029
2
Properties=species:S:1:pos:R:3:forces:R:3 energy=1.62320734699118 pbc="F F F"
Sr       0.00000000       0.00000000       0.00000000       0.00000000       0.00000000      -4.70310068
Sr       0.00000000       0.00000000       2.60303030       0.00000000       0.00000000       4.70310068
2
Properties=species:S:1:pos:R:3:forces:R:3 energy=1.3656150563486587 pbc="F F F"
Sr       0.00000000       0.00000000       0.00000000       0.00000000       0.00000000      -3.97149301
Sr       0.00000000       0.00000000       2.66262626       0.00000000       0.00000000       3.97149301
2
Properties=species:S:1:pos:R:3:forces:R:3 energy=1.1463429718600466 pbc="F F F"
Sr       0.00000000       0.00000000       0.00000000       0.00000000       0.00000000      -3.41475749
Sr       0.00000000       0.00000000       2.72222222       0.00000000       0.00000000       3.41475749
2
Properties=species:S:1:pos:R:3:forces:R:3 energy=0.9556378796348143 pbc="F F F"
Sr       0.00000000       0.00000000       0.00000000       0.00000000       0.00000000      -3.00686860
Sr       0.00000000       0.00000000       2.78181818       0.00000000       0.00000000       3.00686860
2
Properties=species:S:1:pos:R:3:forces:R:3 energy=0.7858028917651148 pbc="F F F"
Sr       0.00000000       0.00000000       0.00000000       0.00000000       0.00000000      -2.70707679
Sr       0.00000000       0.00000000       2.84141414       0.00000000       0.00000000       2.70707679
2
Properties=species:S:1:pos:R:3:forces:R:3 energy=0.6316773665024296 pbc="F F F"
Sr       0.00000000       0.00000000       0.00000000       0.00000000       0.00000000      -2.47291374
Sr       0.00000000       0.00000000       2.90101010       0.00000000       0.00000000       2.47291374
2
Properties=species:S:1:pos:R:3:forces:R:3 energy=0.49046595838455415 pbc="F F F"
Sr       0.00000000       0.00000000       0.00000000       0.00000000       0.00000000      -2.26858759
Sr       0.00000000       0.00000000       2.96060606       0.00000000       0.00000000       2.26858759
2
Properties=species:S:1:pos:R:3:forces:R:3 energy=0.3611873006140029 pbc="F F F"
Sr       0.00000000       0.00000000       0.00000000       0.00000000       0.00000000      -2.06936550
Sr       0.00000000       0.00000000       3.02020202       0.00000000       0.00000000       2.06936550
2
Properties=species:S:1:pos:R:3:forces:R:3 energy=0.24395581485386975 pbc="F F F"
Sr       0.00000000       0.00000000       0.00000000       0.00000000       0.00000000      -1.86345303
Sr       0.00000000       0.00000000       3.07979798       0.00000000       0.00000000       1.86345303
2
Properties=species:S:1:pos:R:3:forces:R:3 energy=0.13920128708492543 pbc="F F F"
Sr       0.00000000       0.00000000       0.00000000       0.00000000       0.00000000      -1.65169430
Sr       0.00000000       0.00000000       3.13939394       0.00000000       0.00000000       1.65169430
2
Properties=species:S:1:pos:R:3:forces:R:3 energy=0.04700297414162434 pbc="F F F"
Sr       0.00000000       0.00000000       0.00000000       0.00000000       0.00000000      -1.44430113
Sr       0.00000000       0.00000000       3.19898990       0.00000000       0.00000000       1.44430113
2
Properties=species:S:1:pos:R:3:forces:R:3 energy=-0.03330603255900816 pbc="F F F"
Sr       0.00000000       0.00000000       0.00000000       0.00000000       0.00000000      -1.25479829
Sr       0.00000000       0.00000000       3.25858586       0.00000000       0.00000000       1.25479829
2
Properties=species:S:1:pos:R:3:forces:R:3 energy=-0.10312639595155043 pbc="F F F"
Sr       0.00000000       0.00000000       0.00000000       0.00000000       0.00000000      -1.09358966
Sr       0.00000000       0.00000000       3.31818182       0.00000000       0.00000000       1.09358966
2
Properties=species:S:1:pos:R:3:forces:R:3 energy=-0.1642810401830434 pbc="F F F"
Sr       0.00000000       0.00000000       0.00000000       0.00000000       0.00000000      -0.96375376
Sr       0.00000000       0.00000000       3.37777778       0.00000000       0.00000000       0.96375376
2
Properties=species:S:1:pos:R:3:forces:R:3 energy=-0.21852995477035186 pbc="F F F"
Sr       0.00000000       0.00000000       0.00000000       0.00000000       0.00000000      -0.86054957
Sr       0.00000000       0.00000000       3.43737374       0.00000000       0.00000000       0.86054957
2
Properties=species:S:1:pos:R:3:forces:R:3 energy=-0.26718458452764704 pbc="F F F"
Sr       0.00000000       0.00000000       0.00000000       0.00000000       0.00000000      -0.77408797
Sr       0.00000000       0.00000000       3.49696970       0.00000000       0.00000000       0.77408797
2
Properties=species:S:1:pos:R:3:forces:R:3 energy=-0.31091424186521166 pbc="F F F"
Sr       0.00000000       0.00000000       0.00000000       0.00000000       0.00000000      -0.69368738
Sr       0.00000000       0.00000000       3.55656566       0.00000000       0.00000000       0.69368738
2
Properties=species:S:1:pos:R:3:forces:R:3 energy=-0.34983554935504074 pbc="F F F"
Sr       0.00000000       0.00000000       0.00000000       0.00000000       0.00000000      -0.61192870
Sr       0.00000000       0.00000000       3.61616162       0.00000000       0.00000000       0.61192870
2
Properties=species:S:1:pos:R:3:forces:R:3 energy=-0.3837802008201753 pbc="F F F"
Sr       0.00000000       0.00000000       0.00000000       0.00000000       0.00000000      -0.52679414
Sr       0.00000000       0.00000000       3.67575758       0.00000000       0.00000000       0.52679414
2
Properties=species:S:1:pos:R:3:forces:R:3 energy=-0.41261193780957583 pbc="F F F"
Sr       0.00000000       0.00000000       0.00000000       0.00000000       0.00000000      -0.44107273
Sr       0.00000000       0.00000000       3.73535354       0.00000000       0.00000000       0.44107273
2
Properties=species:S:1:pos:R:3:forces:R:3 energy=-0.43643890781616385 pbc="F F F"
Sr       0.00000000       0.00000000       0.00000000       0.00000000       0.00000000      -0.35965887
Sr       0.00000000       0.00000000       3.79494949       0.00000000       0.00000000       0.35965887
2
Properties=species:S:1:pos:R:3:forces:R:3 energy=-0.4556459794798166 pbc="F F F"
Sr       0.00000000       0.00000000       0.00000000       0.00000000       0.00000000      -0.28649855
Sr       0.00000000       0.00000000       3.85454545       0.00000000       0.00000000       0.28649855
2
Properties=species:S:1:pos:R:3:forces:R:3 energy=-0.47078081666072813 pbc="F F F"
Sr       0.00000000       0.00000000       0.00000000       0.00000000       0.00000000      -0.22299691
Sr       0.00000000       0.00000000       3.91414141       0.00000000       0.00000000       0.22299691
2
Properties=species:S:1:pos:R:3:forces:R:3 energy=-0.48240301136461267 pbc="F F F"
Sr       0.00000000       0.00000000       0.00000000       0.00000000       0.00000000      -0.16840263
Sr       0.00000000       0.00000000       3.97373737       0.00000000       0.00000000       0.16840263
2
Properties=species:S:1:pos:R:3:forces:R:3 energy=-0.4910023414892457 pbc="F F F"
Sr       0.00000000       0.00000000       0.00000000       0.00000000       0.00000000      -0.12134803
Sr       0.00000000       0.00000000       4.03333333       0.00000000       0.00000000       0.12134803
2
Properties=species:S:1:pos:R:3:forces:R:3 energy=-0.4970025362460489 pbc="F F F"
Sr       0.00000000       0.00000000       0.00000000       0.00000000       0.00000000      -0.08116715
Sr       0.00000000       0.00000000       4.09292929       0.00000000       0.00000000       0.08116715
2
Properties=species:S:1:pos:R:3:forces:R:3 energy=-0.5008207940112026 pbc="F F F"
Sr       0.00000000       0.00000000       0.00000000       0.00000000       0.00000000      -0.04825692
Sr       0.00000000       0.00000000       4.15252525       0.00000000       0.00000000       0.04825692
2
Properties=species:S:1:pos:R:3:forces:R:3 energy=-0.5029155218225552 pbc="F F F"
Sr       0.00000000       0.00000000       0.00000000       0.00000000       0.00000000      -0.02343889
Sr       0.00000000       0.00000000       4.21212121       0.00000000       0.00000000       0.02343889
2
Properties=species:S:1:pos:R:3:forces:R:3 energy=-0.5037775084894031 pbc="F F F"
Sr       0.00000000       0.00000000       0.00000000       0.00000000       0.00000000      -0.00677153
Sr       0.00000000       0.00000000       4.27171717       0.00000000       0.00000000       0.00677153
2
Properties=species:S:1:pos:R:3:forces:R:3 energy=-0.5038483835978511 pbc="F F F"
Sr       0.00000000       0.00000000       0.00000000       0.00000000       0.00000000       0.00364872
Sr       0.00000000       0.00000000       4.33131313       0.00000000       0.00000000      -0.00364872
2
Properties=species:S:1:pos:R:3:forces:R:3 energy=-0.5033835384216198 pbc="F F F"
Sr       0.00000000       0.00000000       0.00000000       0.00000000       0.00000000       0.01206232
Sr       0.00000000       0.00000000       4.39090909       0.00000000       0.00000000      -0.01206232
2
Properties=species:S:1:pos:R:3:forces:R:3 energy=-0.5023464810830214 pbc="F F F"
Sr       0.00000000       0.00000000       0.00000000       0.00000000       0.00000000       0.02364068
Sr       0.00000000       0.00000000       4.45050505       0.00000000       0.00000000      -0.02364068
2
Properties=species:S:1:pos:R:3:forces:R:3 energy=-0.5004336293321439 pbc="F F F"
Sr       0.00000000       0.00000000       0.00000000       0.00000000       0.00000000       0.04174900
Sr       0.00000000       0.00000000       4.51010101       0.00000000       0.00000000      -0.04174900
2
Properties=species:S:1:pos:R:3:forces:R:3 energy=-0.4972389257363664 pbc="F F F"
Sr       0.00000000       0.00000000       0.00000000       0.00000000       0.00000000       0.06638484
Sr       0.00000000       0.00000000       4.56969697       0.00000000       0.00000000      -0.06638484
2
Properties=species:S:1:pos:R:3:forces:R:3 energy=-0.49243729937562325 pbc="F F F"
Sr       0.00000000       0.00000000       0.00000000       0.00000000       0.00000000       0.09522877
Sr       0.00000000       0.00000000       4.62929293       0.00000000       0.00000000      -0.09522877
2
Properties=species:S:1:pos:R:3:forces:R:3 energy=-0.4858575272978096 pbc="F F F"
Sr       0.00000000       0.00000000       0.00000000       0.00000000       0.00000000       0.12567493
Sr       0.00000000       0.00000000       4.68888889       0.00000000       0.00000000      -0.12567493
2
Properties=species:S:1:pos:R:3:forces:R:3 energy=-0.47746408423502307 pbc="F F F"
Sr       0.00000000       0.00000000       0.00000000       0.00000000       0.00000000       0.15582049
Sr       0.00000000       0.00000000       4.74848485       0.00000000       0.00000000      -0.15582049
2
Properties=species:S:1:pos:R:3:forces:R:3 energy=-0.4673154782970724 pbc="F F F"
Sr       0.00000000       0.00000000       0.00000000       0.00000000       0.00000000       0.18443251
Sr       0.00000000       0.00000000       4.80808081       0.00000000       0.00000000      -0.18443251
2
Properties=species:S:1:pos:R:3:forces:R:3 energy=-0.45552778832053853 pbc="F F F"
Sr       0.00000000       0.00000000       0.00000000       0.00000000       0.00000000       0.21071033
Sr       0.00000000       0.00000000       4.86767677       0.00000000       0.00000000      -0.21071033
2
Properties=species:S:1:pos:R:3:forces:R:3 energy=-0.44225534932110466 pbc="F F F"
Sr       0.00000000       0.00000000       0.00000000       0.00000000       0.00000000       0.23423620
Sr       0.00000000       0.00000000       4.92727273       0.00000000       0.00000000      -0.23423620
2
Properties=species:S:1:pos:R:3:forces:R:3 energy=-0.4276615303621709 pbc="F F F"
Sr       0.00000000       0.00000000       0.00000000       0.00000000       0.00000000       0.25512424
Sr       0.00000000       0.00000000       4.98686869       0.00000000       0.00000000      -0.25512424
2
Properties=species:S:1:pos:R:3:forces:R:3 energy=-0.41188595720058885 pbc="F F F"
Sr       0.00000000       0.00000000       0.00000000       0.00000000       0.00000000       0.27412331
Sr       0.00000000       0.00000000       5.04646465       0.00000000       0.00000000      -0.27412331
2
Properties=species:S:1:pos:R:3:forces:R:3 energy=-0.3950027439746515 pbc="F F F"
Sr       0.00000000       0.00000000       0.00000000       0.00000000       0.00000000       0.29243851
Sr       0.00000000       0.00000000       5.10606061       0.00000000       0.00000000      -0.29243851
2
Properties=species:S:1:pos:R:3:forces:R:3 energy=-0.37702604630822656 pbc="F F F"
Sr       0.00000000       0.00000000       0.00000000       0.00000000       0.00000000       0.31070068
Sr       0.00000000       0.00000000       5.16565657       0.00000000       0.00000000      -0.31070068
2
Properties=species:S:1:pos:R:3:forces:R:3 energy=-0.35800609808921446 pbc="F F F"
Sr       0.00000000       0.00000000       0.00000000       0.00000000       0.00000000       0.32689431
Sr       0.00000000       0.00000000       5.22525253       0.00000000       0.00000000      -0.32689431
2
Properties=species:S:1:pos:R:3:forces:R:3 energy=-0.3382227610227333 pbc="F F F"
Sr       0.00000000       0.00000000       0.00000000       0.00000000       0.00000000       0.33513731
Sr       0.00000000       0.00000000       5.28484848       0.00000000       0.00000000      -0.33513731
2
Properties=species:S:1:pos:R:3:forces:R:3 energy=-0.31830672766669205 pbc="F F F"
Sr       0.00000000       0.00000000       0.00000000       0.00000000       0.00000000       0.33151725
Sr       0.00000000       0.00000000       5.34444444       0.00000000       0.00000000      -0.33151725
2
Properties=species:S:1:pos:R:3:forces:R:3 energy=-0.2987504739570781 pbc="F F F"
Sr       0.00000000       0.00000000       0.00000000       0.00000000       0.00000000       0.32607448
Sr       0.00000000       0.00000000       5.40404040       0.00000000       0.00000000      -0.32607448
2
Properties=species:S:1:pos:R:3:forces:R:3 energy=-0.2791379904714869 pbc="F F F"
Sr       0.00000000       0.00000000       0.00000000       0.00000000       0.00000000       0.33462927
Sr       0.00000000       0.00000000       5.46363636       0.00000000       0.00000000      -0.33462927
2
Properties=species:S:1:pos:R:3:forces:R:3 energy=-0.2587849171651665 pbc="F F F"
Sr       0.00000000       0.00000000       0.00000000       0.00000000       0.00000000       0.34666178
Sr       0.00000000       0.00000000       5.52323232       0.00000000       0.00000000      -0.34666178
2
Properties=species:S:1:pos:R:3:forces:R:3 energy=-0.2383347025951335 pbc="F F F"
Sr       0.00000000       0.00000000       0.00000000       0.00000000       0.00000000       0.33480152
Sr       0.00000000       0.00000000       5.58282828       0.00000000       0.00000000      -0.33480152
2
Properties=species:S:1:pos:R:3:forces:R:3 energy=-0.21911443528728008 pbc="F F F"
Sr       0.00000000       0.00000000       0.00000000       0.00000000       0.00000000       0.31287691
Sr       0.00000000       0.00000000       5.64242424       0.00000000       0.00000000      -0.31287691
2
Properties=species:S:1:pos:R:3:forces:R:3 energy=-0.2001142726383583 pbc="F F F"
Sr       0.00000000       0.00000000       0.00000000       0.00000000       0.00000000       0.33573115
Sr       0.00000000       0.00000000       5.70202020       0.00000000       0.00000000      -0.33573115
2
Properties=species:S:1:pos:R:3:forces:R:3 energy=-0.17800483361494487 pbc="F F F"
Sr       0.00000000       0.00000000       0.00000000       0.00000000       0.00000000       0.40931055
Sr       0.00000000       0.00000000       5.76161616       0.00000000       0.00000000      -0.40931055
2
Properties=species:S:1:pos:R:3:forces:R:3 energy=-0.1525622159479718 pbc="F F F"
Sr       0.00000000       0.00000000       0.00000000       0.00000000       0.00000000       0.42158806
Sr       0.00000000       0.00000000       5.82121212       0.00000000       0.00000000      -0.42158806
2
Properties=species:S:1:pos:R:3:forces:R:3 energy=-0.1308627494965311 pbc="F F F"
Sr       0.00000000       0.00000000       0.00000000       0.00000000       0.00000000       0.28875798
Sr       0.00000000       0.00000000       5.88080808       0.00000000       0.00000000      -0.28875798
2
Properties=species:S:1:pos:R:3:forces:R:3 energy=-0.11892354608240346 pbc="F F F"
Sr       0.00000000       0.00000000       0.00000000       0.00000000       0.00000000       0.11498789
Sr       0.00000000       0.00000000       5.94040404       0.00000000       0.00000000      -0.11498789
2
Properties=species:S:1:pos:R:3:forces:R:3 energy=-0.11504953933002832 pbc="F F F"
Sr       0.00000000       0.00000000       0.00000000       0.00000000       0.00000000       0.04012058
Sr       0.00000000       0.00000000       6.00000000       0.00000000       0.00000000      -0.04012058
