2
Properties=species:S:1:pos:R:3:forces:R:3 energy=89454.12087772843 pbc="F F F"
Tl       0.00000000       0.00000000       0.00000000       0.00000000       0.00000000 -2279347.50000000
Tl       0.00000000       0.00000000       0.10000000       0.00000000       0.00000000 2279347.50000000
2
Properties=species:S:1:pos:R:3:forces:R:3 energy=24346.24783085344 pbc="F F F"
Tl       0.00000000       0.00000000       0.00000000       0.00000000       0.00000000 -463308.06250000
Tl       0.00000000       0.00000000       0.15959596       0.00000000       0.00000000  463308.06250000
2
Properties=species:S:1:pos:R:3:forces:R:3 energy=8703.375760540941 pbc="F F F"
Tl       0.00000000       0.00000000       0.00000000       0.00000000       0.00000000 -137571.81250000
Tl       0.00000000       0.00000000       0.21919192       0.00000000       0.00000000  137571.81250000
2
Properties=species:S:1:pos:R:3:forces:R:3 energy=3612.5603308534405 pbc="F F F"
Tl       0.00000000       0.00000000       0.00000000       0.00000000       0.00000000  -49933.18359375
Tl       0.00000000       0.00000000       0.27878788       0.00000000       0.00000000   49933.18359375
2
Properties=species:S:1:pos:R:3:forces:R:3 energy=1661.1754431581278 pbc="F F F"
Tl       0.00000000       0.00000000       0.00000000       0.00000000       0.00000000  -20415.09765625
Tl       0.00000000       0.00000000       0.33838384       0.00000000       0.00000000   20415.09765625
2
Properties=species:S:1:pos:R:3:forces:R:3 energy=832.9466833925029 pbc="F F F"
Tl       0.00000000       0.00000000       0.00000000       0.00000000       0.00000000   -9064.98535156
Tl       0.00000000       0.00000000       0.39797980       0.00000000       0.00000000    9064.98535156
2
Properties=species:S:1:pos:R:3:forces:R:3 energy=454.08486698942073 pbc="F F F"
Tl       0.00000000       0.00000000       0.00000000       0.00000000       0.00000000   -4300.56835938
Tl       0.00000000       0.00000000       0.45757576       0.00000000       0.00000000    4300.56835938
2
Properties=species:S:1:pos:R:3:forces:R:3 energy=269.59716558290853 pbc="F F F"
Tl       0.00000000       0.00000000       0.00000000       0.00000000       0.00000000   -2162.27832031
Tl       0.00000000       0.00000000       0.51717172       0.00000000       0.00000000    2162.27832031
2
Properties=species:S:1:pos:R:3:forces:R:3 energy=174.56858588366578 pbc="F F F"
Tl       0.00000000       0.00000000       0.00000000       0.00000000       0.00000000   -1147.23571777
Tl       0.00000000       0.00000000       0.57676768       0.00000000       0.00000000    1147.23571777
2
Properties=species:S:1:pos:R:3:forces:R:3 energy=122.94218209724677 pbc="F F F"
Tl       0.00000000       0.00000000       0.00000000       0.00000000       0.00000000    -641.71777344
Tl       0.00000000       0.00000000       0.63636364       0.00000000       0.00000000     641.71777344
2
Properties=species:S:1:pos:R:3:forces:R:3 energy=93.3273826325811 pbc="F F F"
Tl       0.00000000       0.00000000       0.00000000       0.00000000       0.00000000    -379.88143921
Tl       0.00000000       0.00000000       0.69595960       0.00000000       0.00000000     379.88143921
2
Properties=species:S:1:pos:R:3:forces:R:3 energy=75.27528917740688 pbc="F F F"
Tl       0.00000000       0.00000000       0.00000000       0.00000000       0.00000000    -240.30775452
Tl       0.00000000       0.00000000       0.75555556       0.00000000       0.00000000     240.30775452
2
Properties=species:S:1:pos:R:3:forces:R:3 energy=63.3457657949205 pbc="F F F"
Tl       0.00000000       0.00000000       0.00000000       0.00000000       0.00000000    -168.93582153
Tl       0.00000000       0.00000000       0.81515152       0.00000000       0.00000000     168.93582153
2
Properties=species:S:1:pos:R:3:forces:R:3 energy=54.49571402591146 pbc="F F F"
Tl       0.00000000       0.00000000       0.00000000       0.00000000       0.00000000    -131.17619324
Tl       0.00000000       0.00000000       0.87474747       0.00000000       0.00000000     131.17619324
2
Properties=species:S:1:pos:R:3:forces:R:3 energy=47.38316536884886 pbc="F F F"
Tl       0.00000000       0.00000000       0.00000000       0.00000000       0.00000000    -109.63900757
Tl       0.00000000       0.00000000       0.93434343       0.00000000       0.00000000     109.63900757
2
Properties=species:S:1:pos:R:3:forces:R:3 energy=41.25874924244587 pbc="F F F"
Tl       0.00000000       0.00000000       0.00000000       0.00000000       0.00000000     -96.74539185
Tl       0.00000000       0.00000000       0.99393939       0.00000000       0.00000000      96.74539185
2
Properties=species:S:1:pos:R:3:forces:R:3 energy=35.78809220425963 pbc="F F F"
Tl       0.00000000       0.00000000       0.00000000       0.00000000       0.00000000     -87.21452332
Tl       0.00000000       0.00000000       1.05353535       0.00000000       0.00000000      87.21452332
2
Properties=species:S:1:pos:R:3:forces:R:3 energy=30.825222975079292 pbc="F F F"
Tl       0.00000000       0.00000000       0.00000000       0.00000000       0.00000000     -79.55020142
Tl       0.00000000       0.00000000       1.11313131       0.00000000       0.00000000      79.55020142
2
Properties=species:S:1:pos:R:3:forces:R:3 energy=26.32059247746423 pbc="F F F"
Tl       0.00000000       0.00000000       0.00000000       0.00000000       0.00000000     -71.08422089
Tl       0.00000000       0.00000000       1.17272727       0.00000000       0.00000000      71.08422089
2
Properties=species:S:1:pos:R:3:forces:R:3 energy=22.432863542281005 pbc="F F F"
Tl       0.00000000       0.00000000       0.00000000       0.00000000       0.00000000     -59.03944778
Tl       0.00000000       0.00000000       1.23232323       0.00000000       0.00000000      59.03944778
2
Properties=species:S:1:pos:R:3:forces:R:3 energy=19.212731626854993 pbc="F F F"
Tl       0.00000000       0.00000000       0.00000000       0.00000000       0.00000000     -50.50977707
Tl       0.00000000       0.00000000       1.29191919       0.00000000       0.00000000      50.50977707
2
Properties=species:S:1:pos:R:3:forces:R:3 energy=16.2547974466903 pbc="F F F"
Tl       0.00000000       0.00000000       0.00000000       0.00000000       0.00000000     -48.98424149
Tl       0.00000000       0.00000000       1.35151515       0.00000000       0.00000000      48.98424149
2
Properties=species:S:1:pos:R:3:forces:R:3 energy=13.519360557025697 pbc="F F F"
Tl       0.00000000       0.00000000       0.00000000       0.00000000       0.00000000     -41.00966644
Tl       0.00000000       0.00000000       1.41111111       0.00000000       0.00000000      41.00966644
2
Properties=species:S:1:pos:R:3:forces:R:3 energy=11.449112811524849 pbc="F F F"
Tl       0.00000000       0.00000000       0.00000000       0.00000000       0.00000000     -29.18817520
Tl       0.00000000       0.00000000       1.47070707       0.00000000       0.00000000      29.18817520
2
Properties=species:S:1:pos:R:3:forces:R:3 energy=9.90333296194171 pbc="F F F"
Tl       0.00000000       0.00000000       0.00000000       0.00000000       0.00000000     -23.53692055
Tl       0.00000000       0.00000000       1.53030303       0.00000000       0.00000000      23.53692055
2
Properties=species:S:1:pos:R:3:forces:R:3 energy=8.602517271480815 pbc="F F F"
Tl       0.00000000       0.00000000       0.00000000       0.00000000       0.00000000     -20.20141220
Tl       0.00000000       0.00000000       1.58989899       0.00000000       0.00000000      20.20141220
2
Properties=species:S:1:pos:R:3:forces:R:3 energy=7.482415350129958 pbc="F F F"
Tl       0.00000000       0.00000000       0.00000000       0.00000000       0.00000000     -17.56640244
Tl       0.00000000       0.00000000       1.64949495       0.00000000       0.00000000      17.56640244
2
Properties=species:S:1:pos:R:3:forces:R:3 energy=6.485600852958373 pbc="F F F"
Tl       0.00000000       0.00000000       0.00000000       0.00000000       0.00000000     -16.05132866
Tl       0.00000000       0.00000000       1.70909091       0.00000000       0.00000000      16.05132866
2
Properties=species:S:1:pos:R:3:forces:R:3 energy=5.556579124537928 pbc="F F F"
Tl       0.00000000       0.00000000       0.00000000       0.00000000       0.00000000     -15.17548656
Tl       0.00000000       0.00000000       1.76868687       0.00000000       0.00000000      15.17548656
2
Properties=species:S:1:pos:R:3:forces:R:3 energy=4.675504325889274 pbc="F F F"
Tl       0.00000000       0.00000000       0.00000000       0.00000000       0.00000000     -14.37994576
Tl       0.00000000       0.00000000       1.82828283       0.00000000       0.00000000      14.37994576
2
Properties=species:S:1:pos:R:3:forces:R:3 energy=3.8450125617105986 pbc="F F F"
Tl       0.00000000       0.00000000       0.00000000       0.00000000       0.00000000     -13.46971798
Tl       0.00000000       0.00000000       1.88787879       0.00000000       0.00000000      13.46971798
2
Properties=species:S:1:pos:R:3:forces:R:3 energy=3.072096336816544 pbc="F F F"
Tl       0.00000000       0.00000000       0.00000000       0.00000000       0.00000000     -12.45534611
Tl       0.00000000       0.00000000       1.94747475       0.00000000       0.00000000      12.45534611
2
Properties=species:S:1:pos:R:3:forces:R:3 energy=2.361583099079686 pbc="F F F"
Tl       0.00000000       0.00000000       0.00000000       0.00000000       0.00000000     -11.38243389
Tl       0.00000000       0.00000000       2.00707071       0.00000000       0.00000000      11.38243389
2
Properties=species:S:1:pos:R:3:forces:R:3 energy=1.7158526975751895 pbc="F F F"
Tl       0.00000000       0.00000000       0.00000000       0.00000000       0.00000000     -10.28695583
Tl       0.00000000       0.00000000       2.06666667       0.00000000       0.00000000      10.28695583
2
Properties=species:S:1:pos:R:3:forces:R:3 energy=1.135255939067706 pbc="F F F"
Tl       0.00000000       0.00000000       0.00000000       0.00000000       0.00000000      -9.20180702
Tl       0.00000000       0.00000000       2.12626263       0.00000000       0.00000000       9.20180702
2
Properties=species:S:1:pos:R:3:forces:R:3 energy=0.6183063767513322 pbc="F F F"
Tl       0.00000000       0.00000000       0.00000000       0.00000000       0.00000000      -8.15467072
Tl       0.00000000       0.00000000       2.18585859       0.00000000       0.00000000       8.15467072
2
Properties=species:S:1:pos:R:3:forces:R:3 energy=0.16225366129091345 pbc="F F F"
Tl       0.00000000       0.00000000       0.00000000       0.00000000       0.00000000      -7.15915298
Tl       0.00000000       0.00000000       2.24545455       0.00000000       0.00000000       7.15915298
2
Properties=species:S:1:pos:R:3:forces:R:3 energy=-0.23607282583119357 pbc="F F F"
Tl       0.00000000       0.00000000       0.00000000       0.00000000       0.00000000      -6.21730328
Tl       0.00000000       0.00000000       2.30505051       0.00000000       0.00000000       6.21730328
2
Properties=species:S:1:pos:R:3:forces:R:3 energy=-0.579898006715821 pbc="F F F"
Tl       0.00000000       0.00000000       0.00000000       0.00000000       0.00000000      -5.33100367
Tl       0.00000000       0.00000000       2.36464646       0.00000000       0.00000000       5.33100367
2
Properties=species:S:1:pos:R:3:forces:R:3 energy=-0.8727425533756622 pbc="F F F"
Tl       0.00000000       0.00000000       0.00000000       0.00000000       0.00000000      -4.50815678
Tl       0.00000000       0.00000000       2.42424242       0.00000000       0.00000000       4.50815678
2
Properties=species:S:1:pos:R:3:forces:R:3 energy=-1.1187031532347502 pbc="F F F"
Tl       0.00000000       0.00000000       0.00000000       0.00000000       0.00000000      -3.75916028
Tl       0.00000000       0.00000000       2.48383838       0.00000000       0.00000000       3.75916028
2
Properties=species:S:1:pos:R:3:forces:R:3 energy=-1.3224058449032734 pbc="F F F"
Tl       0.00000000       0.00000000       0.00000000       0.00000000       0.00000000      -3.09051967
Tl       0.00000000       0.00000000       2.54343434       0.00000000       0.00000000       3.09051967
2
Properties=species:S:1:pos:R:3:forces:R:3 energy=-1.4886614779881944 pbc="F F F"
Tl       0.00000000       0.00000000       0.00000000       0.00000000       0.00000000      -2.50186539
Tl       0.00000000       0.00000000       2.60303030       0.00000000       0.00000000       2.50186539
2
Properties=species:S:1:pos:R:3:forces:R:3 energy=-1.622076665241289 pbc="F F F"
Tl       0.00000000       0.00000000       0.00000000       0.00000000       0.00000000      -1.98702073
Tl       0.00000000       0.00000000       2.66262626       0.00000000       0.00000000       1.98702073
2
Properties=species:S:1:pos:R:3:forces:R:3 energy=-1.7267871323852222 pbc="F F F"
Tl       0.00000000       0.00000000       0.00000000       0.00000000       0.00000000      -1.53705132
Tl       0.00000000       0.00000000       2.72222222       0.00000000       0.00000000       1.53705132
2
Properties=species:S:1:pos:R:3:forces:R:3 energy=-1.806391541118738 pbc="F F F"
Tl       0.00000000       0.00000000       0.00000000       0.00000000       0.00000000      -1.14312351
Tl       0.00000000       0.00000000       2.78181818       0.00000000       0.00000000       1.14312351
2
Properties=species:S:1:pos:R:3:forces:R:3 energy=-1.8640135524709704 pbc="F F F"
Tl       0.00000000       0.00000000       0.00000000       0.00000000       0.00000000      -0.79835802
Tl       0.00000000       0.00000000       2.84141414       0.00000000       0.00000000       0.79835802
2
Properties=species:S:1:pos:R:3:forces:R:3 energy=-1.9024399571858261 pbc="F F F"
Tl       0.00000000       0.00000000       0.00000000       0.00000000       0.00000000      -0.49850246
Tl       0.00000000       0.00000000       2.90101010       0.00000000       0.00000000       0.49850246
2
Properties=species:S:1:pos:R:3:forces:R:3 energy=-1.9242829188929937 pbc="F F F"
Tl       0.00000000       0.00000000       0.00000000       0.00000000       0.00000000      -0.24158749
Tl       0.00000000       0.00000000       2.96060606       0.00000000       0.00000000       0.24158749
2
Properties=species:S:1:pos:R:3:forces:R:3 energy=-1.9320734315190145 pbc="F F F"
Tl       0.00000000       0.00000000       0.00000000       0.00000000       0.00000000      -0.02683069
Tl       0.00000000       0.00000000       3.02020202       0.00000000       0.00000000       0.02683069
2
Properties=species:S:1:pos:R:3:forces:R:3 energy=-1.9282970388925886 pbc="F F F"
Tl       0.00000000       0.00000000       0.00000000       0.00000000       0.00000000       0.14688326
Tl       0.00000000       0.00000000       3.07979798       0.00000000       0.00000000      -0.14688326
2
Properties=species:S:1:pos:R:3:forces:R:3 energy=-1.9153282274618677 pbc="F F F"
Tl       0.00000000       0.00000000       0.00000000       0.00000000       0.00000000       0.28231984
Tl       0.00000000       0.00000000       3.13939394       0.00000000       0.00000000      -0.28231984
2
Properties=species:S:1:pos:R:3:forces:R:3 energy=-1.8953111675040344 pbc="F F F"
Tl       0.00000000       0.00000000       0.00000000       0.00000000       0.00000000       0.38439265
Tl       0.00000000       0.00000000       3.19898990       0.00000000       0.00000000      -0.38439265
2
Properties=species:S:1:pos:R:3:forces:R:3 energy=-1.870043605293486 pbc="F F F"
Tl       0.00000000       0.00000000       0.00000000       0.00000000       0.00000000       0.45972297
Tl       0.00000000       0.00000000       3.25858586       0.00000000       0.00000000      -0.45972297
2
Properties=species:S:1:pos:R:3:forces:R:3 energy=-1.840902877986648 pbc="F F F"
Tl       0.00000000       0.00000000       0.00000000       0.00000000       0.00000000       0.51555502
Tl       0.00000000       0.00000000       3.31818182       0.00000000       0.00000000      -0.51555502
2
Properties=species:S:1:pos:R:3:forces:R:3 energy=-1.8088462792329907 pbc="F F F"
Tl       0.00000000       0.00000000       0.00000000       0.00000000       0.00000000       0.55862164
Tl       0.00000000       0.00000000       3.37777778       0.00000000       0.00000000      -0.55862164
2
Properties=species:S:1:pos:R:3:forces:R:3 energy=-1.774463461872408 pbc="F F F"
Tl       0.00000000       0.00000000       0.00000000       0.00000000       0.00000000       0.59438777
Tl       0.00000000       0.00000000       3.43737374       0.00000000       0.00000000      -0.59438777
2
Properties=species:S:1:pos:R:3:forces:R:3 energy=-1.7380673027236355 pbc="F F F"
Tl       0.00000000       0.00000000       0.00000000       0.00000000       0.00000000       0.62671751
Tl       0.00000000       0.00000000       3.49696970       0.00000000       0.00000000      -0.62671751
2
Properties=species:S:1:pos:R:3:forces:R:3 energy=-1.6997864216805645 pbc="F F F"
Tl       0.00000000       0.00000000       0.00000000       0.00000000       0.00000000       0.65786737
Tl       0.00000000       0.00000000       3.55656566       0.00000000       0.00000000      -0.65786737
2
Properties=species:S:1:pos:R:3:forces:R:3 energy=-1.6596597802603554 pbc="F F F"
Tl       0.00000000       0.00000000       0.00000000       0.00000000       0.00000000       0.68873549
Tl       0.00000000       0.00000000       3.61616162       0.00000000       0.00000000      -0.68873549
2
Properties=species:S:1:pos:R:3:forces:R:3 energy=-1.617701554000412 pbc="F F F"
Tl       0.00000000       0.00000000       0.00000000       0.00000000       0.00000000       0.71923888
Tl       0.00000000       0.00000000       3.67575758       0.00000000       0.00000000      -0.71923888
2
Properties=species:S:1:pos:R:3:forces:R:3 energy=-1.5739545020299193 pbc="F F F"
Tl       0.00000000       0.00000000       0.00000000       0.00000000       0.00000000       0.74861014
Tl       0.00000000       0.00000000       3.73535354       0.00000000       0.00000000      -0.74861014
2
Properties=species:S:1:pos:R:3:forces:R:3 energy=-1.5285209054397622 pbc="F F F"
Tl       0.00000000       0.00000000       0.00000000       0.00000000       0.00000000       0.77561039
Tl       0.00000000       0.00000000       3.79494949       0.00000000       0.00000000      -0.77561039
2
Properties=species:S:1:pos:R:3:forces:R:3 energy=-1.4815849302633763 pbc="F F F"
Tl       0.00000000       0.00000000       0.00000000       0.00000000       0.00000000       0.79875278
Tl       0.00000000       0.00000000       3.85454545       0.00000000       0.00000000      -0.79875278
2
Properties=species:S:1:pos:R:3:forces:R:3 energy=-1.4334218280947308 pbc="F F F"
Tl       0.00000000       0.00000000       0.00000000       0.00000000       0.00000000       0.81656927
Tl       0.00000000       0.00000000       3.91414141       0.00000000       0.00000000      -0.81656927
2
Properties=species:S:1:pos:R:3:forces:R:3 energy=-1.3843849972966948 pbc="F F F"
Tl       0.00000000       0.00000000       0.00000000       0.00000000       0.00000000       0.82789695
Tl       0.00000000       0.00000000       3.97373737       0.00000000       0.00000000      -0.82789695
2
Properties=species:S:1:pos:R:3:forces:R:3 energy=-1.334885791449677 pbc="F F F"
Tl       0.00000000       0.00000000       0.00000000       0.00000000       0.00000000       0.83207619
Tl       0.00000000       0.00000000       4.03333333       0.00000000       0.00000000      -0.83207619
2
Properties=species:S:1:pos:R:3:forces:R:3 energy=-1.2853525168597442 pbc="F F F"
Tl       0.00000000       0.00000000       0.00000000       0.00000000       0.00000000       0.82902950
Tl       0.00000000       0.00000000       4.09292929       0.00000000       0.00000000      -0.82902950
2
Properties=species:S:1:pos:R:3:forces:R:3 energy=-1.236206332443283 pbc="F F F"
Tl       0.00000000       0.00000000       0.00000000       0.00000000       0.00000000       0.81920564
Tl       0.00000000       0.00000000       4.15252525       0.00000000       0.00000000      -0.81920564
2
Properties=species:S:1:pos:R:3:forces:R:3 energy=-1.1878284620046806 pbc="F F F"
Tl       0.00000000       0.00000000       0.00000000       0.00000000       0.00000000       0.80342847
Tl       0.00000000       0.00000000       4.21212121       0.00000000       0.00000000      -0.80342847
2
Properties=species:S:1:pos:R:3:forces:R:3 energy=-1.1405414288606626 pbc="F F F"
Tl       0.00000000       0.00000000       0.00000000       0.00000000       0.00000000       0.78273803
Tl       0.00000000       0.00000000       4.27171717       0.00000000       0.00000000      -0.78273803
2
Properties=species:S:1:pos:R:3:forces:R:3 energy=-1.0946070672962371 pbc="F F F"
Tl       0.00000000       0.00000000       0.00000000       0.00000000       0.00000000       0.75829196
Tl       0.00000000       0.00000000       4.33131313       0.00000000       0.00000000      -0.75829196
2
Properties=species:S:1:pos:R:3:forces:R:3 energy=-1.050210565526957 pbc="F F F"
Tl       0.00000000       0.00000000       0.00000000       0.00000000       0.00000000       0.73129803
Tl       0.00000000       0.00000000       4.39090909       0.00000000       0.00000000      -0.73129803
2
Properties=species:S:1:pos:R:3:forces:R:3 energy=-1.0074681636175868 pbc="F F F"
Tl       0.00000000       0.00000000       0.00000000       0.00000000       0.00000000       0.70295340
Tl       0.00000000       0.00000000       4.45050505       0.00000000       0.00000000      -0.70295340
2
Properties=species:S:1:pos:R:3:forces:R:3 energy=-0.9664299681556718 pbc="F F F"
Tl       0.00000000       0.00000000       0.00000000       0.00000000       0.00000000       0.67430121
Tl       0.00000000       0.00000000       4.51010101       0.00000000       0.00000000      -0.67430121
2
Properties=species:S:1:pos:R:3:forces:R:3 energy=-0.9270886260192759 pbc="F F F"
Tl       0.00000000       0.00000000       0.00000000       0.00000000       0.00000000       0.64603364
Tl       0.00000000       0.00000000       4.56969697       0.00000000       0.00000000      -0.64603364
2
Properties=species:S:1:pos:R:3:forces:R:3 energy=-0.889415828346137 pbc="F F F"
Tl       0.00000000       0.00000000       0.00000000       0.00000000       0.00000000       0.61832047
Tl       0.00000000       0.00000000       4.62929293       0.00000000       0.00000000      -0.61832047
2
Properties=species:S:1:pos:R:3:forces:R:3 energy=-0.8533857720049778 pbc="F F F"
Tl       0.00000000       0.00000000       0.00000000       0.00000000       0.00000000       0.59083891
Tl       0.00000000       0.00000000       4.68888889       0.00000000       0.00000000      -0.59083891
2
Properties=species:S:1:pos:R:3:forces:R:3 energy=-0.8189989614396801 pbc="F F F"
Tl       0.00000000       0.00000000       0.00000000       0.00000000       0.00000000       0.56305033
Tl       0.00000000       0.00000000       4.74848485       0.00000000       0.00000000      -0.56305033
2
Properties=species:S:1:pos:R:3:forces:R:3 energy=-0.7862855485292621 pbc="F F F"
Tl       0.00000000       0.00000000       0.00000000       0.00000000       0.00000000       0.53475213
Tl       0.00000000       0.00000000       4.80808081       0.00000000       0.00000000      -0.53475213
2
Properties=species:S:1:pos:R:3:forces:R:3 energy=-0.7552572575660983 pbc="F F F"
Tl       0.00000000       0.00000000       0.00000000       0.00000000       0.00000000       0.50665367
Tl       0.00000000       0.00000000       4.86767677       0.00000000       0.00000000      -0.50665367
2
Properties=species:S:1:pos:R:3:forces:R:3 energy=-0.7258541640598024 pbc="F F F"
Tl       0.00000000       0.00000000       0.00000000       0.00000000       0.00000000       0.48065883
Tl       0.00000000       0.00000000       4.92727273       0.00000000       0.00000000      -0.48065883
2
Properties=species:S:1:pos:R:3:forces:R:3 energy=-0.6978697521078371 pbc="F F F"
Tl       0.00000000       0.00000000       0.00000000       0.00000000       0.00000000       0.45952189
Tl       0.00000000       0.00000000       4.98686869       0.00000000       0.00000000      -0.45952189
2
Properties=species:S:1:pos:R:3:forces:R:3 energy=-0.6709396053521162 pbc="F F F"
Tl       0.00000000       0.00000000       0.00000000       0.00000000       0.00000000       0.44566482
Tl       0.00000000       0.00000000       5.04646465       0.00000000       0.00000000      -0.44566482
2
Properties=species:S:1:pos:R:3:forces:R:3 energy=-0.6446005652968918 pbc="F F F"
Tl       0.00000000       0.00000000       0.00000000       0.00000000       0.00000000       0.43929791
Tl       0.00000000       0.00000000       5.10606061       0.00000000       0.00000000      -0.43929791
2
Properties=species:S:1:pos:R:3:forces:R:3 energy=-0.6185039672174266 pbc="F F F"
Tl       0.00000000       0.00000000       0.00000000       0.00000000       0.00000000       0.43628332
Tl       0.00000000       0.00000000       5.16565657       0.00000000       0.00000000      -0.43628332
2
Properties=species:S:1:pos:R:3:forces:R:3 energy=-0.5927162236317323 pbc="F F F"
Tl       0.00000000       0.00000000       0.00000000       0.00000000       0.00000000       0.42714542
Tl       0.00000000       0.00000000       5.22525253       0.00000000       0.00000000      -0.42714542
2
Properties=species:S:1:pos:R:3:forces:R:3 energy=-0.5679475679202851 pbc="F F F"
Tl       0.00000000       0.00000000       0.00000000       0.00000000       0.00000000       0.40057436
Tl       0.00000000       0.00000000       5.28484848       0.00000000       0.00000000      -0.40057436
2
Properties=species:S:1:pos:R:3:forces:R:3 energy=-0.5453211332608774 pbc="F F F"
Tl       0.00000000       0.00000000       0.00000000       0.00000000       0.00000000       0.35752913
Tl       0.00000000       0.00000000       5.34444444       0.00000000       0.00000000      -0.35752913
2
Properties=species:S:1:pos:R:3:forces:R:3 energy=-0.5250596997453508 pbc="F F F"
Tl       0.00000000       0.00000000       0.00000000       0.00000000       0.00000000       0.32853517
Tl       0.00000000       0.00000000       5.40404040       0.00000000       0.00000000      -0.32853517
2
Properties=species:S:1:pos:R:3:forces:R:3 energy=-0.5052331062294523 pbc="F F F"
Tl       0.00000000       0.00000000       0.00000000       0.00000000       0.00000000       0.34277758
Tl       0.00000000       0.00000000       5.46363636       0.00000000       0.00000000      -0.34277758
2
Properties=species:S:1:pos:R:3:forces:R:3 energy=-0.48421909474062114 pbc="F F F"
Tl       0.00000000       0.00000000       0.00000000       0.00000000       0.00000000       0.35636580
Tl       0.00000000       0.00000000       5.52323232       0.00000000       0.00000000      -0.35636580
2
Properties=species:S:1:pos:R:3:forces:R:3 energy=-0.4637990000815118 pbc="F F F"
Tl       0.00000000       0.00000000       0.00000000       0.00000000       0.00000000       0.32171315
Tl       0.00000000       0.00000000       5.58282828       0.00000000       0.00000000      -0.32171315
2
Properties=species:S:1:pos:R:3:forces:R:3 energy=-0.4460960342900173 pbc="F F F"
Tl       0.00000000       0.00000000       0.00000000       0.00000000       0.00000000       0.27645546
Tl       0.00000000       0.00000000       5.64242424       0.00000000       0.00000000      -0.27645546
2
Properties=species:S:1:pos:R:3:forces:R:3 energy=-0.4298310394799231 pbc="F F F"
Tl       0.00000000       0.00000000       0.00000000       0.00000000       0.00000000       0.27907991
Tl       0.00000000       0.00000000       5.70202020       0.00000000       0.00000000      -0.27907991
2
Properties=species:S:1:pos:R:3:forces:R:3 energy=-0.41220709354993945 pbc="F F F"
Tl       0.00000000       0.00000000       0.00000000       0.00000000       0.00000000       0.30992213
Tl       0.00000000       0.00000000       5.76161616       0.00000000       0.00000000      -0.30992213
2
Properties=species:S:1:pos:R:3:forces:R:3 energy=-0.39428497220380376 pbc="F F F"
Tl       0.00000000       0.00000000       0.00000000       0.00000000       0.00000000       0.27456480
Tl       0.00000000       0.00000000       5.82121212       0.00000000       0.00000000      -0.27456480
2
Properties=species:S:1:pos:R:3:forces:R:3 energy=-0.381101166730912 pbc="F F F"
Tl       0.00000000       0.00000000       0.00000000       0.00000000       0.00000000       0.16266662
Tl       0.00000000       0.00000000       5.88080808       0.00000000       0.00000000      -0.16266662
2
Properties=species:S:1:pos:R:3:forces:R:3 energy=-0.37478222485321044 pbc="F F F"
Tl       0.00000000       0.00000000       0.00000000       0.00000000       0.00000000       0.05435536
Tl       0.00000000       0.00000000       5.94040404       0.00000000       0.00000000      -0.05435536
2
Properties=species:S:1:pos:R:3:forces:R:3 energy=-0.3732491216858789 pbc="F F F"
Tl       0.00000000       0.00000000       0.00000000       0.00000000       0.00000000       0.01155493
Tl       0.00000000       0.00000000       6.00000000       0.00000000       0.00000000      -0.01155493
