2
Properties=species:S:1:pos:R:3:forces:R:3 energy=12159.543329727383 pbc="F F F"
V        0.00000000       0.00000000       0.00000000       0.00000000       0.00000000 -267667.37500000
V        0.00000000       0.00000000       0.10000000       0.00000000       0.00000000  267667.37500000
2
Properties=species:S:1:pos:R:3:forces:R:3 energy=3955.5133004305076 pbc="F F F"
V        0.00000000       0.00000000       0.00000000       0.00000000       0.00000000  -64678.45703125
V        0.00000000       0.00000000       0.15959596       0.00000000       0.00000000   64678.45703125
2
Properties=species:S:1:pos:R:3:forces:R:3 energy=1650.6086373445703 pbc="F F F"
V        0.00000000       0.00000000       0.00000000       0.00000000       0.00000000  -21839.58593750
V        0.00000000       0.00000000       0.21919192       0.00000000       0.00000000   21839.58593750
2
Properties=species:S:1:pos:R:3:forces:R:3 energy=800.0679879305077 pbc="F F F"
V        0.00000000       0.00000000       0.00000000       0.00000000       0.00000000   -8957.06445312
V        0.00000000       0.00000000       0.27878788       0.00000000       0.00000000    8957.06445312
2
Properties=species:S:1:pos:R:3:forces:R:3 energy=430.0416817844996 pbc="F F F"
V        0.00000000       0.00000000       0.00000000       0.00000000       0.00000000   -4173.17480469
V        0.00000000       0.00000000       0.33838384       0.00000000       0.00000000    4173.17480469
2
Properties=species:S:1:pos:R:3:forces:R:3 energy=250.01432277571055 pbc="F F F"
V        0.00000000       0.00000000       0.00000000       0.00000000       0.00000000   -2137.43847656
V        0.00000000       0.00000000       0.39797980       0.00000000       0.00000000    2137.43847656
2
Properties=species:S:1:pos:R:3:forces:R:3 energy=154.1277413674834 pbc="F F F"
V        0.00000000       0.00000000       0.00000000       0.00000000       0.00000000   -1195.52978516
V        0.00000000       0.00000000       0.45757576       0.00000000       0.00000000    1195.52978516
2
Properties=species:S:1:pos:R:3:forces:R:3 energy=98.21471649048223 pbc="F F F"
V        0.00000000       0.00000000       0.00000000       0.00000000       0.00000000    -730.71441650
V        0.00000000       0.00000000       0.51717172       0.00000000       0.00000000     730.71441650
2
Properties=species:S:1:pos:R:3:forces:R:3 energy=63.666300390800785 pbc="F F F"
V        0.00000000       0.00000000       0.00000000       0.00000000       0.00000000    -439.64361572
V        0.00000000       0.00000000       0.57676768       0.00000000       0.00000000     439.64361572
2
Properties=species:S:1:pos:R:3:forces:R:3 energy=44.60950343924062 pbc="F F F"
V        0.00000000       0.00000000       0.00000000       0.00000000       0.00000000    -219.64479065
V        0.00000000       0.00000000       0.63636364       0.00000000       0.00000000     219.64479065
2
Properties=species:S:1:pos:R:3:forces:R:3 energy=34.885218421214155 pbc="F F F"
V        0.00000000       0.00000000       0.00000000       0.00000000       0.00000000    -121.98513031
V        0.00000000       0.00000000       0.69595960       0.00000000       0.00000000     121.98513031
2
Properties=species:S:1:pos:R:3:forces:R:3 energy=28.97405526853407 pbc="F F F"
V        0.00000000       0.00000000       0.00000000       0.00000000       0.00000000     -82.47286224
V        0.00000000       0.00000000       0.75555556       0.00000000       0.00000000      82.47286224
2
Properties=species:S:1:pos:R:3:forces:R:3 energy=24.49970746005818 pbc="F F F"
V        0.00000000       0.00000000       0.00000000       0.00000000       0.00000000     -70.90534210
V        0.00000000       0.00000000       0.81515152       0.00000000       0.00000000      70.90534210
2
Properties=species:S:1:pos:R:3:forces:R:3 energy=20.303811691515197 pbc="F F F"
V        0.00000000       0.00000000       0.00000000       0.00000000       0.00000000     -70.68325806
V        0.00000000       0.00000000       0.87474747       0.00000000       0.00000000      70.68325806
2
Properties=species:S:1:pos:R:3:forces:R:3 energy=16.04831906598246 pbc="F F F"
V        0.00000000       0.00000000       0.00000000       0.00000000       0.00000000     -72.12087250
V        0.00000000       0.00000000       0.93434343       0.00000000       0.00000000      72.12087250
2
Properties=species:S:1:pos:R:3:forces:R:3 energy=11.689837446413001 pbc="F F F"
V        0.00000000       0.00000000       0.00000000       0.00000000       0.00000000     -74.32920837
V        0.00000000       0.00000000       0.99393939       0.00000000       0.00000000      74.32920837
2
Properties=species:S:1:pos:R:3:forces:R:3 energy=7.233463802211646 pbc="F F F"
V        0.00000000       0.00000000       0.00000000       0.00000000       0.00000000     -74.06807709
V        0.00000000       0.00000000       1.05353535       0.00000000       0.00000000      74.06807709
2
Properties=species:S:1:pos:R:3:forces:R:3 energy=3.0595302088447993 pbc="F F F"
V        0.00000000       0.00000000       0.00000000       0.00000000       0.00000000     -64.29433441
V        0.00000000       0.00000000       1.11313131       0.00000000       0.00000000      64.29433441
2
Properties=species:S:1:pos:R:3:forces:R:3 energy=-0.30342835576732713 pbc="F F F"
V        0.00000000       0.00000000       0.00000000       0.00000000       0.00000000     -48.43725204
V        0.00000000       0.00000000       1.17272727       0.00000000       0.00000000      48.43725204
2
Properties=species:S:1:pos:R:3:forces:R:3 energy=-2.7919881566789853 pbc="F F F"
V        0.00000000       0.00000000       0.00000000       0.00000000       0.00000000     -36.11289215
V        0.00000000       0.00000000       1.23232323       0.00000000       0.00000000      36.11289215
2
Properties=species:S:1:pos:R:3:forces:R:3 energy=-4.7087279995993585 pbc="F F F"
V        0.00000000       0.00000000       0.00000000       0.00000000       0.00000000     -28.67352104
V        0.00000000       0.00000000       1.29191919       0.00000000       0.00000000      28.67352104
2
Properties=species:S:1:pos:R:3:forces:R:3 energy=-6.230618697518346 pbc="F F F"
V        0.00000000       0.00000000       0.00000000       0.00000000       0.00000000     -22.54830742
V        0.00000000       0.00000000       1.35151515       0.00000000       0.00000000      22.54830742
2
Properties=species:S:1:pos:R:3:forces:R:3 energy=-7.433218264950943 pbc="F F F"
V        0.00000000       0.00000000       0.00000000       0.00000000       0.00000000     -18.18553162
V        0.00000000       0.00000000       1.41111111       0.00000000       0.00000000      18.18553162
2
Properties=species:S:1:pos:R:3:forces:R:3 energy=-8.428732964537588 pbc="F F F"
V        0.00000000       0.00000000       0.00000000       0.00000000       0.00000000     -15.31843758
V        0.00000000       0.00000000       1.47070707       0.00000000       0.00000000      15.31843758
2
Properties=species:S:1:pos:R:3:forces:R:3 energy=-9.256477798224577 pbc="F F F"
V        0.00000000       0.00000000       0.00000000       0.00000000       0.00000000     -12.38072205
V        0.00000000       0.00000000       1.53030303       0.00000000       0.00000000      12.38072205
2
Properties=species:S:1:pos:R:3:forces:R:3 energy=-9.895988588111626 pbc="F F F"
V        0.00000000       0.00000000       0.00000000       0.00000000       0.00000000      -9.03514576
V        0.00000000       0.00000000       1.58989899       0.00000000       0.00000000       9.03514576
2
Properties=species:S:1:pos:R:3:forces:R:3 energy=-10.330757894016422 pbc="F F F"
V        0.00000000       0.00000000       0.00000000       0.00000000       0.00000000      -5.55505371
V        0.00000000       0.00000000       1.64949495       0.00000000       0.00000000       5.55505371
2
Properties=species:S:1:pos:R:3:forces:R:3 energy=-10.561803885312807 pbc="F F F"
V        0.00000000       0.00000000       0.00000000       0.00000000       0.00000000      -2.26853061
V        0.00000000       0.00000000       1.70909091       0.00000000       0.00000000       2.26853061
2
Properties=species:S:1:pos:R:3:forces:R:3 energy=-10.613481388987209 pbc="F F F"
V        0.00000000       0.00000000       0.00000000       0.00000000       0.00000000       0.41212508
V        0.00000000       0.00000000       1.76868687       0.00000000       0.00000000      -0.41212508
2
Properties=species:S:1:pos:R:3:forces:R:3 energy=-10.526572082056829 pbc="F F F"
V        0.00000000       0.00000000       0.00000000       0.00000000       0.00000000       2.40246511
V        0.00000000       0.00000000       1.82828283       0.00000000       0.00000000      -2.40246511
2
Properties=species:S:1:pos:R:3:forces:R:3 energy=-10.337791649427029 pbc="F F F"
V        0.00000000       0.00000000       0.00000000       0.00000000       0.00000000       3.84760642
V        0.00000000       0.00000000       1.88787879       0.00000000       0.00000000      -3.84760642
2
Properties=species:S:1:pos:R:3:forces:R:3 energy=-10.079302487993878 pbc="F F F"
V        0.00000000       0.00000000       0.00000000       0.00000000       0.00000000       4.71602726
V        0.00000000       0.00000000       1.94747475       0.00000000       0.00000000      -4.71602726
2
Properties=species:S:1:pos:R:3:forces:R:3 energy=-9.79087081404852 pbc="F F F"
V        0.00000000       0.00000000       0.00000000       0.00000000       0.00000000       4.82554436
V        0.00000000       0.00000000       2.00707071       0.00000000       0.00000000      -4.82554436
2
Properties=species:S:1:pos:R:3:forces:R:3 energy=-9.520053415388766 pbc="F F F"
V        0.00000000       0.00000000       0.00000000       0.00000000       0.00000000       4.14529848
V        0.00000000       0.00000000       2.06666667       0.00000000       0.00000000      -4.14529848
2
Properties=species:S:1:pos:R:3:forces:R:3 energy=-9.30725397693457 pbc="F F F"
V        0.00000000       0.00000000       0.00000000       0.00000000       0.00000000       2.94316578
V        0.00000000       0.00000000       2.12626263       0.00000000       0.00000000      -2.94316578
2
Properties=species:S:1:pos:R:3:forces:R:3 energy=-9.171355447645524 pbc="F F F"
V        0.00000000       0.00000000       0.00000000       0.00000000       0.00000000       1.63128150
V        0.00000000       0.00000000       2.18585859       0.00000000       0.00000000      -1.63128150
2
Properties=species:S:1:pos:R:3:forces:R:3 energy=-9.108467894174263 pbc="F F F"
V        0.00000000       0.00000000       0.00000000       0.00000000       0.00000000       0.53223789
V        0.00000000       0.00000000       2.24545455       0.00000000       0.00000000      -0.53223789
2
Properties=species:S:1:pos:R:3:forces:R:3 energy=-9.100545064725367 pbc="F F F"
V        0.00000000       0.00000000       0.00000000       0.00000000       0.00000000      -0.19973998
V        0.00000000       0.00000000       2.30505051       0.00000000       0.00000000       0.19973998
2
Properties=species:S:1:pos:R:3:forces:R:3 energy=-9.12434821042297 pbc="F F F"
V        0.00000000       0.00000000       0.00000000       0.00000000       0.00000000      -0.53534955
V        0.00000000       0.00000000       2.36464646       0.00000000       0.00000000       0.53534955
2
Properties=species:S:1:pos:R:3:forces:R:3 energy=-9.15753578206714 pbc="F F F"
V        0.00000000       0.00000000       0.00000000       0.00000000       0.00000000      -0.52993524
V        0.00000000       0.00000000       2.42424242       0.00000000       0.00000000       0.52993524
2
Properties=species:S:1:pos:R:3:forces:R:3 energy=-9.183081699313865 pbc="F F F"
V        0.00000000       0.00000000       0.00000000       0.00000000       0.00000000      -0.30234972
V        0.00000000       0.00000000       2.48383838       0.00000000       0.00000000       0.30234972
2
Properties=species:S:1:pos:R:3:forces:R:3 energy=-9.19200670508675 pbc="F F F"
V        0.00000000       0.00000000       0.00000000       0.00000000       0.00000000       0.00526411
V        0.00000000       0.00000000       2.54343434       0.00000000       0.00000000      -0.00526411
2
Properties=species:S:1:pos:R:3:forces:R:3 energy=-9.183097251294 pbc="F F F"
V        0.00000000       0.00000000       0.00000000       0.00000000       0.00000000       0.28286234
V        0.00000000       0.00000000       2.60303030       0.00000000       0.00000000      -0.28286234
2
Properties=species:S:1:pos:R:3:forces:R:3 energy=-9.159823981288184 pbc="F F F"
V        0.00000000       0.00000000       0.00000000       0.00000000       0.00000000       0.48515439
V        0.00000000       0.00000000       2.66262626       0.00000000       0.00000000      -0.48515439
2
Properties=species:S:1:pos:R:3:forces:R:3 energy=-9.126645142496027 pbc="F F F"
V        0.00000000       0.00000000       0.00000000       0.00000000       0.00000000       0.61870402
V        0.00000000       0.00000000       2.72222222       0.00000000       0.00000000      -0.61870402
2
Properties=species:S:1:pos:R:3:forces:R:3 energy=-9.086980983682567 pbc="F F F"
V        0.00000000       0.00000000       0.00000000       0.00000000       0.00000000       0.70685560
V        0.00000000       0.00000000       2.78181818       0.00000000       0.00000000      -0.70685560
2
Properties=species:S:1:pos:R:3:forces:R:3 energy=-9.042787192834123 pbc="F F F"
V        0.00000000       0.00000000       0.00000000       0.00000000       0.00000000       0.77552962
V        0.00000000       0.00000000       2.84141414       0.00000000       0.00000000      -0.77552962
2
Properties=species:S:1:pos:R:3:forces:R:3 energy=-8.994324358716137 pbc="F F F"
V        0.00000000       0.00000000       0.00000000       0.00000000       0.00000000       0.85460597
V        0.00000000       0.00000000       2.90101010       0.00000000       0.00000000      -0.85460597
2
Properties=species:S:1:pos:R:3:forces:R:3 energy=-8.94053892730982 pbc="F F F"
V        0.00000000       0.00000000       0.00000000       0.00000000       0.00000000       0.95122260
V        0.00000000       0.00000000       2.96060606       0.00000000       0.00000000      -0.95122260
2
Properties=species:S:1:pos:R:3:forces:R:3 energy=-8.881329622508535 pbc="F F F"
V        0.00000000       0.00000000       0.00000000       0.00000000       0.00000000       1.02853572
V        0.00000000       0.00000000       3.02020202       0.00000000       0.00000000      -1.02853572
2
Properties=species:S:1:pos:R:3:forces:R:3 energy=-8.819094140819148 pbc="F F F"
V        0.00000000       0.00000000       0.00000000       0.00000000       0.00000000       1.04970288
V        0.00000000       0.00000000       3.07979798       0.00000000       0.00000000      -1.04970288
2
Properties=species:S:1:pos:R:3:forces:R:3 energy=-8.757297445029607 pbc="F F F"
V        0.00000000       0.00000000       0.00000000       0.00000000       0.00000000       1.01733887
V        0.00000000       0.00000000       3.13939394       0.00000000       0.00000000      -1.01733887
2
Properties=species:S:1:pos:R:3:forces:R:3 energy=-8.698241279006753 pbc="F F F"
V        0.00000000       0.00000000       0.00000000       0.00000000       0.00000000       0.96473175
V        0.00000000       0.00000000       3.19898990       0.00000000       0.00000000      -0.96473175
2
Properties=species:S:1:pos:R:3:forces:R:3 energy=-8.641885280551843 pbc="F F F"
V        0.00000000       0.00000000       0.00000000       0.00000000       0.00000000       0.93304062
V        0.00000000       0.00000000       3.25858586       0.00000000       0.00000000      -0.93304062
2
Properties=species:S:1:pos:R:3:forces:R:3 energy=-8.586034495488217 pbc="F F F"
V        0.00000000       0.00000000       0.00000000       0.00000000       0.00000000       0.95052087
V        0.00000000       0.00000000       3.31818182       0.00000000       0.00000000      -0.95052087
2
Properties=species:S:1:pos:R:3:forces:R:3 energy=-8.527555340473516 pbc="F F F"
V        0.00000000       0.00000000       0.00000000       0.00000000       0.00000000       1.01924145
V        0.00000000       0.00000000       3.37777778       0.00000000       0.00000000      -1.01924145
2
Properties=species:S:1:pos:R:3:forces:R:3 energy=-8.463985533890835 pbc="F F F"
V        0.00000000       0.00000000       0.00000000       0.00000000       0.00000000       1.11598277
V        0.00000000       0.00000000       3.43737374       0.00000000       0.00000000      -1.11598277
2
Properties=species:S:1:pos:R:3:forces:R:3 energy=-8.394675262079275 pbc="F F F"
V        0.00000000       0.00000000       0.00000000       0.00000000       0.00000000       1.20604825
V        0.00000000       0.00000000       3.49696970       0.00000000       0.00000000      -1.20604825
2
Properties=species:S:1:pos:R:3:forces:R:3 energy=-8.320953304127864 pbc="F F F"
V        0.00000000       0.00000000       0.00000000       0.00000000       0.00000000       1.26046813
V        0.00000000       0.00000000       3.55656566       0.00000000       0.00000000      -1.26046813
2
Properties=species:S:1:pos:R:3:forces:R:3 energy=-8.245408524993614 pbc="F F F"
V        0.00000000       0.00000000       0.00000000       0.00000000       0.00000000       1.26663184
V        0.00000000       0.00000000       3.61616162       0.00000000       0.00000000      -1.26663184
2
Properties=species:S:1:pos:R:3:forces:R:3 energy=-8.170868892462234 pbc="F F F"
V        0.00000000       0.00000000       0.00000000       0.00000000       0.00000000       1.22846556
V        0.00000000       0.00000000       3.67575758       0.00000000       0.00000000      -1.22846556
2
Properties=species:S:1:pos:R:3:forces:R:3 energy=-8.099594326551637 pbc="F F F"
V        0.00000000       0.00000000       0.00000000       0.00000000       0.00000000       1.15971613
V        0.00000000       0.00000000       3.73535354       0.00000000       0.00000000      -1.15971613
2
Properties=species:S:1:pos:R:3:forces:R:3 energy=-8.032925668008117 pbc="F F F"
V        0.00000000       0.00000000       0.00000000       0.00000000       0.00000000       1.07648289
V        0.00000000       0.00000000       3.79494949       0.00000000       0.00000000      -1.07648289
2
Properties=species:S:1:pos:R:3:forces:R:3 energy=-7.9712972487986775 pbc="F F F"
V        0.00000000       0.00000000       0.00000000       0.00000000       0.00000000       0.99254721
V        0.00000000       0.00000000       3.85454545       0.00000000       0.00000000      -0.99254721
2
Properties=species:S:1:pos:R:3:forces:R:3 energy=-7.914442286885157 pbc="F F F"
V        0.00000000       0.00000000       0.00000000       0.00000000       0.00000000       0.91753203
V        0.00000000       0.00000000       3.91414141       0.00000000       0.00000000      -0.91753203
2
Properties=species:S:1:pos:R:3:forces:R:3 energy=-7.8616506650574705 pbc="F F F"
V        0.00000000       0.00000000       0.00000000       0.00000000       0.00000000       0.85668468
V        0.00000000       0.00000000       3.97373737       0.00000000       0.00000000      -0.85668468
2
Properties=species:S:1:pos:R:3:forces:R:3 energy=-7.812020743638831 pbc="F F F"
V        0.00000000       0.00000000       0.00000000       0.00000000       0.00000000       0.81142145
V        0.00000000       0.00000000       4.03333333       0.00000000       0.00000000      -0.81142145
2
Properties=species:S:1:pos:R:3:forces:R:3 energy=-7.764656512971651 pbc="F F F"
V        0.00000000       0.00000000       0.00000000       0.00000000       0.00000000       0.78014046
V        0.00000000       0.00000000       4.09292929       0.00000000       0.00000000      -0.78014046
2
Properties=species:S:1:pos:R:3:forces:R:3 energy=-7.718830427643505 pbc="F F F"
V        0.00000000       0.00000000       0.00000000       0.00000000       0.00000000       0.75905794
V        0.00000000       0.00000000       4.15252525       0.00000000       0.00000000      -0.75905794
2
Properties=species:S:1:pos:R:3:forces:R:3 energy=-7.674082520587776 pbc="F F F"
V        0.00000000       0.00000000       0.00000000       0.00000000       0.00000000       0.74304420
V        0.00000000       0.00000000       4.21212121       0.00000000       0.00000000      -0.74304420
2
Properties=species:S:1:pos:R:3:forces:R:3 energy=-7.63027496526031 pbc="F F F"
V        0.00000000       0.00000000       0.00000000       0.00000000       0.00000000       0.72655600
V        0.00000000       0.00000000       4.27171717       0.00000000       0.00000000      -0.72655600
2
Properties=species:S:1:pos:R:3:forces:R:3 energy=-7.5875916955007625 pbc="F F F"
V        0.00000000       0.00000000       0.00000000       0.00000000       0.00000000       0.70464528
V        0.00000000       0.00000000       4.33131313       0.00000000       0.00000000      -0.70464528
2
Properties=species:S:1:pos:R:3:forces:R:3 energy=-7.546464006264626 pbc="F F F"
V        0.00000000       0.00000000       0.00000000       0.00000000       0.00000000       0.67392200
V        0.00000000       0.00000000       4.39090909       0.00000000       0.00000000      -0.67392200
2
Properties=species:S:1:pos:R:3:forces:R:3 energy=-7.507464868500341 pbc="F F F"
V        0.00000000       0.00000000       0.00000000       0.00000000       0.00000000       0.63323134
V        0.00000000       0.00000000       4.45050505       0.00000000       0.00000000      -0.63323134
2
Properties=species:S:1:pos:R:3:forces:R:3 energy=-7.471162495792219 pbc="F F F"
V        0.00000000       0.00000000       0.00000000       0.00000000       0.00000000       0.58381104
V        0.00000000       0.00000000       4.51010101       0.00000000       0.00000000      -0.58381104
2
Properties=species:S:1:pos:R:3:forces:R:3 energy=-7.437989641957777 pbc="F F F"
V        0.00000000       0.00000000       0.00000000       0.00000000       0.00000000       0.52882826
V        0.00000000       0.00000000       4.56969697       0.00000000       0.00000000      -0.52882826
2
Properties=species:S:1:pos:R:3:forces:R:3 energy=-7.40815792241472 pbc="F F F"
V        0.00000000       0.00000000       0.00000000       0.00000000       0.00000000       0.47244963
V        0.00000000       0.00000000       4.62929293       0.00000000       0.00000000      -0.47244963
2
Properties=species:S:1:pos:R:3:forces:R:3 energy=-7.381625314890296 pbc="F F F"
V        0.00000000       0.00000000       0.00000000       0.00000000       0.00000000       0.41868836
V        0.00000000       0.00000000       4.68888889       0.00000000       0.00000000      -0.41868836
2
Properties=species:S:1:pos:R:3:forces:R:3 energy=-7.358144345316841 pbc="F F F"
V        0.00000000       0.00000000       0.00000000       0.00000000       0.00000000       0.37036356
V        0.00000000       0.00000000       4.74848485       0.00000000       0.00000000      -0.37036356
2
Properties=species:S:1:pos:R:3:forces:R:3 energy=-7.337351791902165 pbc="F F F"
V        0.00000000       0.00000000       0.00000000       0.00000000       0.00000000       0.32848999
V        0.00000000       0.00000000       4.80808081       0.00000000       0.00000000      -0.32848999
2
Properties=species:S:1:pos:R:3:forces:R:3 energy=-7.318880398073097 pbc="F F F"
V        0.00000000       0.00000000       0.00000000       0.00000000       0.00000000       0.29211003
V        0.00000000       0.00000000       4.86767677       0.00000000       0.00000000      -0.29211003
2
Properties=species:S:1:pos:R:3:forces:R:3 energy=-7.302476328135701 pbc="F F F"
V        0.00000000       0.00000000       0.00000000       0.00000000       0.00000000       0.25858545
V        0.00000000       0.00000000       4.92727273       0.00000000       0.00000000      -0.25858545
2
Properties=species:S:1:pos:R:3:forces:R:3 energy=-7.2880725906941795 pbc="F F F"
V        0.00000000       0.00000000       0.00000000       0.00000000       0.00000000       0.22438319
V        0.00000000       0.00000000       4.98686869       0.00000000       0.00000000      -0.22438319
2
Properties=species:S:1:pos:R:3:forces:R:3 energy=-7.2758090499723975 pbc="F F F"
V        0.00000000       0.00000000       0.00000000       0.00000000       0.00000000       0.18642181
V        0.00000000       0.00000000       5.04646465       0.00000000       0.00000000      -0.18642181
2
Properties=species:S:1:pos:R:3:forces:R:3 energy=-7.265945966232794 pbc="F F F"
V        0.00000000       0.00000000       0.00000000       0.00000000       0.00000000       0.14396377
V        0.00000000       0.00000000       5.10606061       0.00000000       0.00000000      -0.14396377
2
Properties=species:S:1:pos:R:3:forces:R:3 energy=-7.258672497308106 pbc="F F F"
V        0.00000000       0.00000000       0.00000000       0.00000000       0.00000000       0.10048158
V        0.00000000       0.00000000       5.16565657       0.00000000       0.00000000      -0.10048158
2
Properties=species:S:1:pos:R:3:forces:R:3 energy=-7.253830540194687 pbc="F F F"
V        0.00000000       0.00000000       0.00000000       0.00000000       0.00000000       0.06400584
V        0.00000000       0.00000000       5.22525253       0.00000000       0.00000000      -0.06400584
2
Properties=species:S:1:pos:R:3:forces:R:3 energy=-7.250722136357923 pbc="F F F"
V        0.00000000       0.00000000       0.00000000       0.00000000       0.00000000       0.04345737
V        0.00000000       0.00000000       5.28484848       0.00000000       0.00000000      -0.04345737
2
Properties=species:S:1:pos:R:3:forces:R:3 energy=-7.248322296328073 pbc="F F F"
V        0.00000000       0.00000000       0.00000000       0.00000000       0.00000000       0.03864929
V        0.00000000       0.00000000       5.34444444       0.00000000       0.00000000      -0.03864929
2
Properties=species:S:1:pos:R:3:forces:R:3 energy=-7.246223111930942 pbc="F F F"
V        0.00000000       0.00000000       0.00000000       0.00000000       0.00000000       0.02804663
V        0.00000000       0.00000000       5.40404040       0.00000000       0.00000000      -0.02804663
2
Properties=species:S:1:pos:R:3:forces:R:3 energy=-7.245569974530932 pbc="F F F"
V        0.00000000       0.00000000       0.00000000       0.00000000       0.00000000      -0.00951455
V        0.00000000       0.00000000       5.46363636       0.00000000       0.00000000       0.00951455
2
Properties=species:S:1:pos:R:3:forces:R:3 energy=-7.247140432966691 pbc="F F F"
V        0.00000000       0.00000000       0.00000000       0.00000000       0.00000000      -0.03647839
V        0.00000000       0.00000000       5.52323232       0.00000000       0.00000000       0.03647839
2
Properties=species:S:1:pos:R:3:forces:R:3 energy=-7.249012122394512 pbc="F F F"
V        0.00000000       0.00000000       0.00000000       0.00000000       0.00000000      -0.02099954
V        0.00000000       0.00000000       5.58282828       0.00000000       0.00000000       0.02099954
2
Properties=species:S:1:pos:R:3:forces:R:3 energy=-7.249518671496394 pbc="F F F"
V        0.00000000       0.00000000       0.00000000       0.00000000       0.00000000       0.00105113
V        0.00000000       0.00000000       5.64242424       0.00000000       0.00000000      -0.00105113
2
Properties=species:S:1:pos:R:3:forces:R:3 energy=-7.249496758742286 pbc="F F F"
V        0.00000000       0.00000000       0.00000000       0.00000000       0.00000000      -0.00525489
V        0.00000000       0.00000000       5.70202020       0.00000000       0.00000000       0.00525489
2
Properties=species:S:1:pos:R:3:forces:R:3 energy=-7.250195208377859 pbc="F F F"
V        0.00000000       0.00000000       0.00000000       0.00000000       0.00000000      -0.01278511
V        0.00000000       0.00000000       5.76161616       0.00000000       0.00000000       0.01278511
2
Properties=species:S:1:pos:R:3:forces:R:3 energy=-7.250121216386635 pbc="F F F"
V        0.00000000       0.00000000       0.00000000       0.00000000       0.00000000       0.01977844
V        0.00000000       0.00000000       5.82121212       0.00000000       0.00000000      -0.01977844
2
Properties=species:S:1:pos:R:3:forces:R:3 energy=-7.248108474405243 pbc="F F F"
V        0.00000000       0.00000000       0.00000000       0.00000000       0.00000000       0.04102172
V        0.00000000       0.00000000       5.88080808       0.00000000       0.00000000      -0.04102172
2
Properties=species:S:1:pos:R:3:forces:R:3 energy=-7.245927350984845 pbc="F F F"
V        0.00000000       0.00000000       0.00000000       0.00000000       0.00000000       0.02896832
V        0.00000000       0.00000000       5.94040404       0.00000000       0.00000000      -0.02896832
2
Properties=species:S:1:pos:R:3:forces:R:3 energy=-7.2445828324329735 pbc="F F F"
V        0.00000000       0.00000000       0.00000000       0.00000000       0.00000000       0.01901128
V        0.00000000       0.00000000       6.00000000       0.00000000       0.00000000      -0.01901128
