2
Properties=species:S:1:pos:R:3:forces:R:3 energy=48853.056248182176 pbc="F F F"
Xe       0.00000000       0.00000000       0.00000000       0.00000000       0.00000000 -1160126.37500000
Xe       0.00000000       0.00000000       0.10000000       0.00000000       0.00000000 1160126.37500000
2
Properties=species:S:1:pos:R:3:forces:R:3 energy=14936.576755994676 pbc="F F F"
Xe       0.00000000       0.00000000       0.00000000       0.00000000       0.00000000 -249652.40625000
Xe       0.00000000       0.00000000       0.15959596       0.00000000       0.00000000  249652.40625000
2
Properties=species:S:1:pos:R:3:forces:R:3 energy=6354.454197400926 pbc="F F F"
Xe       0.00000000       0.00000000       0.00000000       0.00000000       0.00000000  -77468.34375000
Xe       0.00000000       0.00000000       0.21919192       0.00000000       0.00000000   77468.34375000
2
Properties=species:S:1:pos:R:3:forces:R:3 energy=3433.652195450969 pbc="F F F"
Xe       0.00000000       0.00000000       0.00000000       0.00000000       0.00000000  -29425.30468750
Xe       0.00000000       0.00000000       0.27878788       0.00000000       0.00000000   29425.30468750
2
Properties=species:S:1:pos:R:3:forces:R:3 energy=2259.5015606885117 pbc="F F F"
Xe       0.00000000       0.00000000       0.00000000       0.00000000       0.00000000  -12640.10937500
Xe       0.00000000       0.00000000       0.33838384       0.00000000       0.00000000   12640.10937500
2
Properties=species:S:1:pos:R:3:forces:R:3 energy=1734.562962062035 pbc="F F F"
Xe       0.00000000       0.00000000       0.00000000       0.00000000       0.00000000   -5933.20751953
Xe       0.00000000       0.00000000       0.39797980       0.00000000       0.00000000    5933.20751953
2
Properties=species:S:1:pos:R:3:forces:R:3 energy=1478.9559064138116 pbc="F F F"
Xe       0.00000000       0.00000000       0.00000000       0.00000000       0.00000000   -3032.17773438
Xe       0.00000000       0.00000000       0.45757576       0.00000000       0.00000000    3032.17773438
2
Properties=species:S:1:pos:R:3:forces:R:3 energy=1342.1899152345522 pbc="F F F"
Xe       0.00000000       0.00000000       0.00000000       0.00000000       0.00000000   -1729.22351074
Xe       0.00000000       0.00000000       0.51717172       0.00000000       0.00000000    1729.22351074
2
Properties=species:S:1:pos:R:3:forces:R:3 energy=1258.4556623618855 pbc="F F F"
Xe       0.00000000       0.00000000       0.00000000       0.00000000       0.00000000   -1122.23754883
Xe       0.00000000       0.00000000       0.57676768       0.00000000       0.00000000    1122.23754883
2
Properties=species:S:1:pos:R:3:forces:R:3 energy=1221.7992903866077 pbc="F F F"
Xe       0.00000000       0.00000000       0.00000000       0.00000000       0.00000000    -322.18893433
Xe       0.00000000       0.00000000       0.63636364       0.00000000       0.00000000     322.18893433
2
Properties=species:S:1:pos:R:3:forces:R:3 energy=1211.5866440542882 pbc="F F F"
Xe       0.00000000       0.00000000       0.00000000       0.00000000       0.00000000     -10.81779003
Xe       0.00000000       0.00000000       0.69595960       0.00000000       0.00000000      10.81779003
2
Properties=species:S:1:pos:R:3:forces:R:3 energy=1220.7275134356678 pbc="F F F"
Xe       0.00000000       0.00000000       0.00000000       0.00000000       0.00000000     306.80090332
Xe       0.00000000       0.00000000       0.75555556       0.00000000       0.00000000    -306.80090332
2
Properties=species:S:1:pos:R:3:forces:R:3 energy=1241.2792715966282 pbc="F F F"
Xe       0.00000000       0.00000000       0.00000000       0.00000000       0.00000000     246.25544739
Xe       0.00000000       0.00000000       0.81515152       0.00000000       0.00000000    -246.25544739
2
Properties=species:S:1:pos:R:3:forces:R:3 energy=1225.6482906645028 pbc="F F F"
Xe       0.00000000       0.00000000       0.00000000       0.00000000       0.00000000    -942.83386230
Xe       0.00000000       0.00000000       0.87474747       0.00000000       0.00000000     942.83386230
2
Properties=species:S:1:pos:R:3:forces:R:3 energy=1132.7271488086412 pbc="F F F"
Xe       0.00000000       0.00000000       0.00000000       0.00000000       0.00000000   -2052.19775391
Xe       0.00000000       0.00000000       0.93434343       0.00000000       0.00000000    2052.19775391
2
Properties=species:S:1:pos:R:3:forces:R:3 energy=990.568946684673 pbc="F F F"
Xe       0.00000000       0.00000000       0.00000000       0.00000000       0.00000000   -2741.82983398
Xe       0.00000000       0.00000000       0.99393939       0.00000000       0.00000000    2741.82983398
2
Properties=species:S:1:pos:R:3:forces:R:3 energy=813.8330471615947 pbc="F F F"
Xe       0.00000000       0.00000000       0.00000000       0.00000000       0.00000000   -3123.77368164
Xe       0.00000000       0.00000000       1.05353535       0.00000000       0.00000000    3123.77368164
2
Properties=species:S:1:pos:R:3:forces:R:3 energy=624.4306441916005 pbc="F F F"
Xe       0.00000000       0.00000000       0.00000000       0.00000000       0.00000000   -3181.55786133
Xe       0.00000000       0.00000000       1.11313131       0.00000000       0.00000000    3181.55786133
2
Properties=species:S:1:pos:R:3:forces:R:3 energy=443.76487509893127 pbc="F F F"
Xe       0.00000000       0.00000000       0.00000000       0.00000000       0.00000000   -2736.03979492
Xe       0.00000000       0.00000000       1.17272727       0.00000000       0.00000000    2736.03979492
2
Properties=species:S:1:pos:R:3:forces:R:3 energy=300.70265285843226 pbc="F F F"
Xe       0.00000000       0.00000000       0.00000000       0.00000000       0.00000000   -2123.78833008
Xe       0.00000000       0.00000000       1.23232323       0.00000000       0.00000000    2123.78833008
2
Properties=species:S:1:pos:R:3:forces:R:3 energy=191.04506407328287 pbc="F F F"
Xe       0.00000000       0.00000000       0.00000000       0.00000000       0.00000000   -1559.64807129
Xe       0.00000000       0.00000000       1.29191919       0.00000000       0.00000000    1559.64807129
2
Properties=species:S:1:pos:R:3:forces:R:3 energy=113.35253373507203 pbc="F F F"
Xe       0.00000000       0.00000000       0.00000000       0.00000000       0.00000000   -1050.51489258
Xe       0.00000000       0.00000000       1.35151515       0.00000000       0.00000000    1050.51489258
2
Properties=species:S:1:pos:R:3:forces:R:3 energy=64.51116284726159 pbc="F F F"
Xe       0.00000000       0.00000000       0.00000000       0.00000000       0.00000000    -590.84124756
Xe       0.00000000       0.00000000       1.41111111       0.00000000       0.00000000     590.84124756
2
Properties=species:S:1:pos:R:3:forces:R:3 energy=39.99254743694093 pbc="F F F"
Xe       0.00000000       0.00000000       0.00000000       0.00000000       0.00000000    -275.27508545
Xe       0.00000000       0.00000000       1.47070707       0.00000000       0.00000000     275.27508545
2
Properties=species:S:1:pos:R:3:forces:R:3 energy=28.03239603857968 pbc="F F F"
Xe       0.00000000       0.00000000       0.00000000       0.00000000       0.00000000    -143.78689575
Xe       0.00000000       0.00000000       1.53030303       0.00000000       0.00000000     143.78689575
2
Properties=species:S:1:pos:R:3:forces:R:3 energy=21.518015214017172 pbc="F F F"
Xe       0.00000000       0.00000000       0.00000000       0.00000000       0.00000000     -82.22786713
Xe       0.00000000       0.00000000       1.58989899       0.00000000       0.00000000      82.22786713
2
Properties=species:S:1:pos:R:3:forces:R:3 energy=17.60449570393372 pbc="F F F"
Xe       0.00000000       0.00000000       0.00000000       0.00000000       0.00000000     -52.71481323
Xe       0.00000000       0.00000000       1.64949495       0.00000000       0.00000000      52.71481323
2
Properties=species:S:1:pos:R:3:forces:R:3 energy=14.93859698502754 pbc="F F F"
Xe       0.00000000       0.00000000       0.00000000       0.00000000       0.00000000     -38.39472961
Xe       0.00000000       0.00000000       1.70909091       0.00000000       0.00000000      38.39472961
2
Properties=species:S:1:pos:R:3:forces:R:3 energy=12.895519838924454 pbc="F F F"
Xe       0.00000000       0.00000000       0.00000000       0.00000000       0.00000000     -30.89493561
Xe       0.00000000       0.00000000       1.76868687       0.00000000       0.00000000      30.89493561
2
Properties=species:S:1:pos:R:3:forces:R:3 energy=11.19843990049968 pbc="F F F"
Xe       0.00000000       0.00000000       0.00000000       0.00000000       0.00000000     -26.36610031
Xe       0.00000000       0.00000000       1.82828283       0.00000000       0.00000000      26.36610031
2
Properties=species:S:1:pos:R:3:forces:R:3 energy=9.729086926126389 pbc="F F F"
Xe       0.00000000       0.00000000       0.00000000       0.00000000       0.00000000     -23.06657791
Xe       0.00000000       0.00000000       1.88787879       0.00000000       0.00000000      23.06657791
2
Properties=species:S:1:pos:R:3:forces:R:3 energy=8.439702588312363 pbc="F F F"
Xe       0.00000000       0.00000000       0.00000000       0.00000000       0.00000000     -20.25550079
Xe       0.00000000       0.00000000       1.94747475       0.00000000       0.00000000      20.25550079
2
Properties=species:S:1:pos:R:3:forces:R:3 energy=7.310127016635604 pbc="F F F"
Xe       0.00000000       0.00000000       0.00000000       0.00000000       0.00000000     -17.68591118
Xe       0.00000000       0.00000000       2.00707071       0.00000000       0.00000000      17.68591118
2
Properties=species:S:1:pos:R:3:forces:R:3 energy=6.327721095528839 pbc="F F F"
Xe       0.00000000       0.00000000       0.00000000       0.00000000       0.00000000     -15.31702900
Xe       0.00000000       0.00000000       2.06666667       0.00000000       0.00000000      15.31702900
2
Properties=species:S:1:pos:R:3:forces:R:3 energy=5.480242532975091 pbc="F F F"
Xe       0.00000000       0.00000000       0.00000000       0.00000000       0.00000000     -13.16038513
Xe       0.00000000       0.00000000       2.12626263       0.00000000       0.00000000      13.16038513
2
Properties=species:S:1:pos:R:3:forces:R:3 energy=4.754665218039602 pbc="F F F"
Xe       0.00000000       0.00000000       0.00000000       0.00000000       0.00000000     -11.22739601
Xe       0.00000000       0.00000000       2.18585859       0.00000000       0.00000000      11.22739601
2
Properties=species:S:1:pos:R:3:forces:R:3 energy=4.137457204261782 pbc="F F F"
Xe       0.00000000       0.00000000       0.00000000       0.00000000       0.00000000      -9.52458572
Xe       0.00000000       0.00000000       2.24545455       0.00000000       0.00000000       9.52458572
2
Properties=species:S:1:pos:R:3:forces:R:3 energy=3.614733326056231 pbc="F F F"
Xe       0.00000000       0.00000000       0.00000000       0.00000000       0.00000000      -8.05725098
Xe       0.00000000       0.00000000       2.30505051       0.00000000       0.00000000       8.05725098
2
Properties=species:S:1:pos:R:3:forces:R:3 energy=3.1723717727266334 pbc="F F F"
Xe       0.00000000       0.00000000       0.00000000       0.00000000       0.00000000      -6.82753181
Xe       0.00000000       0.00000000       2.36464646       0.00000000       0.00000000       6.82753181
2
Properties=species:S:1:pos:R:3:forces:R:3 energy=2.796358600144735 pbc="F F F"
Xe       0.00000000       0.00000000       0.00000000       0.00000000       0.00000000      -5.82833004
Xe       0.00000000       0.00000000       2.42424242       0.00000000       0.00000000       5.82833004
2
Properties=species:S:1:pos:R:3:forces:R:3 energy=2.473500382890213 pbc="F F F"
Xe       0.00000000       0.00000000       0.00000000       0.00000000       0.00000000      -5.03915882
Xe       0.00000000       0.00000000       2.48383838       0.00000000       0.00000000       5.03915882
2
Properties=species:S:1:pos:R:3:forces:R:3 energy=2.1922164570142724 pbc="F F F"
Xe       0.00000000       0.00000000       0.00000000       0.00000000       0.00000000      -4.42670584
Xe       0.00000000       0.00000000       2.54343434       0.00000000       0.00000000       4.42670584
2
Properties=species:S:1:pos:R:3:forces:R:3 energy=1.9431806299809458 pbc="F F F"
Xe       0.00000000       0.00000000       0.00000000       0.00000000       0.00000000      -3.94983673
Xe       0.00000000       0.00000000       2.60303030       0.00000000       0.00000000       3.94983673
2
Properties=species:S:1:pos:R:3:forces:R:3 energy=1.719568311027795 pbc="F F F"
Xe       0.00000000       0.00000000       0.00000000       0.00000000       0.00000000      -3.56670213
Xe       0.00000000       0.00000000       2.66262626       0.00000000       0.00000000       3.56670213
2
Properties=species:S:1:pos:R:3:forces:R:3 energy=1.5169138861704572 pbc="F F F"
Xe       0.00000000       0.00000000       0.00000000       0.00000000       0.00000000      -3.24147081
Xe       0.00000000       0.00000000       2.72222222       0.00000000       0.00000000       3.24147081
2
Properties=species:S:1:pos:R:3:forces:R:3 energy=1.332577765147282 pbc="F F F"
Xe       0.00000000       0.00000000       0.00000000       0.00000000       0.00000000      -2.94860244
Xe       0.00000000       0.00000000       2.78181818       0.00000000       0.00000000       2.94860244
2
Properties=species:S:1:pos:R:3:forces:R:3 energy=1.1651105939286495 pbc="F F F"
Xe       0.00000000       0.00000000       0.00000000       0.00000000       0.00000000      -2.67383075
Xe       0.00000000       0.00000000       2.84141414       0.00000000       0.00000000       2.67383075
2
Properties=species:S:1:pos:R:3:forces:R:3 energy=1.013624777006812 pbc="F F F"
Xe       0.00000000       0.00000000       0.00000000       0.00000000       0.00000000      -2.41209006
Xe       0.00000000       0.00000000       2.90101010       0.00000000       0.00000000       2.41209006
2
Properties=species:S:1:pos:R:3:forces:R:3 energy=0.8773431066761469 pbc="F F F"
Xe       0.00000000       0.00000000       0.00000000       0.00000000       0.00000000      -2.16385221
Xe       0.00000000       0.00000000       2.96060606       0.00000000       0.00000000       2.16385221
2
Properties=species:S:1:pos:R:3:forces:R:3 energy=0.7553932430501472 pbc="F F F"
Xe       0.00000000       0.00000000       0.00000000       0.00000000       0.00000000      -1.93151712
Xe       0.00000000       0.00000000       3.02020202       0.00000000       0.00000000       1.93151712
2
Properties=species:S:1:pos:R:3:forces:R:3 energy=0.6467659242858147 pbc="F F F"
Xe       0.00000000       0.00000000       0.00000000       0.00000000       0.00000000      -1.71699095
Xe       0.00000000       0.00000000       3.07979798       0.00000000       0.00000000       1.71699095
2
Properties=species:S:1:pos:R:3:forces:R:3 energy=0.5503782540451225 pbc="F F F"
Xe       0.00000000       0.00000000       0.00000000       0.00000000       0.00000000      -1.52072692
Xe       0.00000000       0.00000000       3.13939394       0.00000000       0.00000000       1.52072692
2
Properties=species:S:1:pos:R:3:forces:R:3 energy=0.4651623235143533 pbc="F F F"
Xe       0.00000000       0.00000000       0.00000000       0.00000000       0.00000000      -1.34181809
Xe       0.00000000       0.00000000       3.19898990       0.00000000       0.00000000       1.34181809
2
Properties=species:S:1:pos:R:3:forces:R:3 energy=0.3901327948597319 pbc="F F F"
Xe       0.00000000       0.00000000       0.00000000       0.00000000       0.00000000      -1.17859161
Xe       0.00000000       0.00000000       3.25858586       0.00000000       0.00000000       1.17859161
2
Properties=species:S:1:pos:R:3:forces:R:3 energy=0.3244076100896858 pbc="F F F"
Xe       0.00000000       0.00000000       0.00000000       0.00000000       0.00000000      -1.02928221
Xe       0.00000000       0.00000000       3.31818182       0.00000000       0.00000000       1.02928221
2
Properties=species:S:1:pos:R:3:forces:R:3 energy=0.26720121138047614 pbc="F F F"
Xe       0.00000000       0.00000000       0.00000000       0.00000000       0.00000000      -0.89254361
Xe       0.00000000       0.00000000       3.37777778       0.00000000       0.00000000       0.89254361
2
Properties=species:S:1:pos:R:3:forces:R:3 energy=0.21778832562679878 pbc="F F F"
Xe       0.00000000       0.00000000       0.00000000       0.00000000       0.00000000      -0.76768470
Xe       0.00000000       0.00000000       3.43737374       0.00000000       0.00000000       0.76768470
2
Properties=species:S:1:pos:R:3:forces:R:3 energy=0.17546570459548322 pbc="F F F"
Xe       0.00000000       0.00000000       0.00000000       0.00000000       0.00000000      -0.65458977
Xe       0.00000000       0.00000000       3.49696970       0.00000000       0.00000000       0.65458977
2
Properties=species:S:1:pos:R:3:forces:R:3 energy=0.1395287673023053 pbc="F F F"
Xe       0.00000000       0.00000000       0.00000000       0.00000000       0.00000000      -0.55342060
Xe       0.00000000       0.00000000       3.55656566       0.00000000       0.00000000       0.55342060
2
Properties=species:S:1:pos:R:3:forces:R:3 energy=0.10926351724697586 pbc="F F F"
Xe       0.00000000       0.00000000       0.00000000       0.00000000       0.00000000      -0.46427044
Xe       0.00000000       0.00000000       3.61616162       0.00000000       0.00000000       0.46427044
2
Properties=species:S:1:pos:R:3:forces:R:3 energy=0.08395739714810771 pbc="F F F"
Xe       0.00000000       0.00000000       0.00000000       0.00000000       0.00000000      -0.38691890
Xe       0.00000000       0.00000000       3.67575758       0.00000000       0.00000000       0.38691890
2
Properties=species:S:1:pos:R:3:forces:R:3 energy=0.06292389856490072 pbc="F F F"
Xe       0.00000000       0.00000000       0.00000000       0.00000000       0.00000000      -0.32074073
Xe       0.00000000       0.00000000       3.73535354       0.00000000       0.00000000       0.32074073
2
Properties=species:S:1:pos:R:3:forces:R:3 energy=0.04552469012151469 pbc="F F F"
Xe       0.00000000       0.00000000       0.00000000       0.00000000       0.00000000      -0.26476228
Xe       0.00000000       0.00000000       3.79494949       0.00000000       0.00000000       0.26476228
2
Properties=species:S:1:pos:R:3:forces:R:3 energy=0.03118770640182244 pbc="F F F"
Xe       0.00000000       0.00000000       0.00000000       0.00000000       0.00000000      -0.21776487
Xe       0.00000000       0.00000000       3.85454545       0.00000000       0.00000000       0.21776487
2
Properties=species:S:1:pos:R:3:forces:R:3 energy=0.01941698048592508 pbc="F F F"
Xe       0.00000000       0.00000000       0.00000000       0.00000000       0.00000000      -0.17842729
Xe       0.00000000       0.00000000       3.91414141       0.00000000       0.00000000       0.17842729
2
Properties=species:S:1:pos:R:3:forces:R:3 energy=0.009794541467852792 pbc="F F F"
Xe       0.00000000       0.00000000       0.00000000       0.00000000       0.00000000      -0.14543317
Xe       0.00000000       0.00000000       3.97373737       0.00000000       0.00000000       0.14543317
2
Properties=species:S:1:pos:R:3:forces:R:3 energy=0.0019804842981309377 pbc="F F F"
Xe       0.00000000       0.00000000       0.00000000       0.00000000       0.00000000      -0.11757305
Xe       0.00000000       0.00000000       4.03333333       0.00000000       0.00000000       0.11757305
2
Properties=species:S:1:pos:R:3:forces:R:3 energy=-0.004300354208170817 pbc="F F F"
Xe       0.00000000       0.00000000       0.00000000       0.00000000       0.00000000      -0.09381526
Xe       0.00000000       0.00000000       4.09292929       0.00000000       0.00000000       0.09381526
2
Properties=species:S:1:pos:R:3:forces:R:3 energy=-0.009267136928856664 pbc="F F F"
Xe       0.00000000       0.00000000       0.00000000       0.00000000       0.00000000      -0.07335844
Xe       0.00000000       0.00000000       4.15252525       0.00000000       0.00000000       0.07335844
2
Properties=species:S:1:pos:R:3:forces:R:3 energy=-0.013098503759349317 pbc="F F F"
Xe       0.00000000       0.00000000       0.00000000       0.00000000       0.00000000      -0.05564790
Xe       0.00000000       0.00000000       4.21212121       0.00000000       0.00000000       0.05564790
2
Properties=species:S:1:pos:R:3:forces:R:3 energy=-0.01594787987919296 pbc="F F F"
Xe       0.00000000       0.00000000       0.00000000       0.00000000       0.00000000      -0.04036298
Xe       0.00000000       0.00000000       4.27171717       0.00000000       0.00000000       0.04036298
2
Properties=species:S:1:pos:R:3:forces:R:3 energy=-0.017955140268685336 pbc="F F F"
Xe       0.00000000       0.00000000       0.00000000       0.00000000       0.00000000      -0.02738338
Xe       0.00000000       0.00000000       4.33131313       0.00000000       0.00000000       0.02738338
2
Properties=species:S:1:pos:R:3:forces:R:3 energy=-0.019257879026242278 pbc="F F F"
Xe       0.00000000       0.00000000       0.00000000       0.00000000       0.00000000      -0.01673735
Xe       0.00000000       0.00000000       4.39090909       0.00000000       0.00000000       0.01673735
2
Properties=species:S:1:pos:R:3:forces:R:3 energy=-0.01999904067430563 pbc="F F F"
Xe       0.00000000       0.00000000       0.00000000       0.00000000       0.00000000      -0.00855257
Xe       0.00000000       0.00000000       4.45050505       0.00000000       0.00000000       0.00855257
2
Properties=species:S:1:pos:R:3:forces:R:3 energy=-0.020329446627366615 pbc="F F F"
Xe       0.00000000       0.00000000       0.00000000       0.00000000       0.00000000      -0.00298860
Xe       0.00000000       0.00000000       4.51010101       0.00000000       0.00000000       0.00298860
2
Properties=species:S:1:pos:R:3:forces:R:3 energy=-0.020409568934600227 pbc="F F F"
Xe       0.00000000       0.00000000       0.00000000       0.00000000       0.00000000      -0.00015548
Xe       0.00000000       0.00000000       4.56969697       0.00000000       0.00000000       0.00015548
2
Properties=species:S:1:pos:R:3:forces:R:3 energy=-0.02040176669964385 pbc="F F F"
Xe       0.00000000       0.00000000       0.00000000       0.00000000       0.00000000      -0.00001822
Xe       0.00000000       0.00000000       4.62929293       0.00000000       0.00000000       0.00001822
2
Properties=species:S:1:pos:R:3:forces:R:3 energy=-0.020459969774049423 pbc="F F F"
Xe       0.00000000       0.00000000       0.00000000       0.00000000       0.00000000      -0.00229986
Xe       0.00000000       0.00000000       4.68888889       0.00000000       0.00000000       0.00229986
2
Properties=species:S:1:pos:R:3:forces:R:3 energy=-0.020712909287765462 pbc="F F F"
Xe       0.00000000       0.00000000       0.00000000       0.00000000       0.00000000      -0.00643215
Xe       0.00000000       0.00000000       4.74848485       0.00000000       0.00000000       0.00643215
2
Properties=species:S:1:pos:R:3:forces:R:3 energy=-0.021246694249662607 pbc="F F F"
Xe       0.00000000       0.00000000       0.00000000       0.00000000       0.00000000      -0.01157159
Xe       0.00000000       0.00000000       4.80808081       0.00000000       0.00000000       0.01157159
2
Properties=species:S:1:pos:R:3:forces:R:3 energy=-0.022092036737286734 pbc="F F F"
Xe       0.00000000       0.00000000       0.00000000       0.00000000       0.00000000      -0.01670575
Xe       0.00000000       0.00000000       4.86767677       0.00000000       0.00000000       0.01670575
2
Properties=species:S:1:pos:R:3:forces:R:3 energy=-0.023217766799156953 pbc="F F F"
Xe       0.00000000       0.00000000       0.00000000       0.00000000       0.00000000      -0.02082836
Xe       0.00000000       0.00000000       4.92727273       0.00000000       0.00000000       0.02082836
2
Properties=species:S:1:pos:R:3:forces:R:3 energy=-0.02453830848631397 pbc="F F F"
Xe       0.00000000       0.00000000       0.00000000       0.00000000       0.00000000      -0.02313455
Xe       0.00000000       0.00000000       4.98686869       0.00000000       0.00000000       0.02313455
2
Properties=species:S:1:pos:R:3:forces:R:3 energy=-0.02593038649401263 pbc="F F F"
Xe       0.00000000       0.00000000       0.00000000       0.00000000       0.00000000      -0.02321714
Xe       0.00000000       0.00000000       5.04646465       0.00000000       0.00000000       0.02321714
2
Properties=species:S:1:pos:R:3:forces:R:3 energy=-0.02726357736920692 pbc="F F F"
Xe       0.00000000       0.00000000       0.00000000       0.00000000       0.00000000      -0.02122489
Xe       0.00000000       0.00000000       5.10606061       0.00000000       0.00000000       0.02122489
2
Properties=species:S:1:pos:R:3:forces:R:3 energy=-0.028435426924005837 pbc="F F F"
Xe       0.00000000       0.00000000       0.00000000       0.00000000       0.00000000      -0.01799254
Xe       0.00000000       0.00000000       5.16565657       0.00000000       0.00000000       0.01799254
2
Properties=species:S:1:pos:R:3:forces:R:3 energy=-0.029413883541926405 pbc="F F F"
Xe       0.00000000       0.00000000       0.00000000       0.00000000       0.00000000      -0.01504712
Xe       0.00000000       0.00000000       5.22525253       0.00000000       0.00000000       0.01504712
2
Properties=species:S:1:pos:R:3:forces:R:3 energy=-0.030269010465895134 pbc="F F F"
Xe       0.00000000       0.00000000       0.00000000       0.00000000       0.00000000      -0.01407780
Xe       0.00000000       0.00000000       5.28484848       0.00000000       0.00000000       0.01407780
2
Properties=species:S:1:pos:R:3:forces:R:3 energy=-0.031133614587642126 pbc="F F F"
Xe       0.00000000       0.00000000       0.00000000       0.00000000       0.00000000      -0.01505277
Xe       0.00000000       0.00000000       5.34444444       0.00000000       0.00000000       0.01505277
2
Properties=species:S:1:pos:R:3:forces:R:3 energy=-0.03202131412241434 pbc="F F F"
Xe       0.00000000       0.00000000       0.00000000       0.00000000       0.00000000      -0.01385185
Xe       0.00000000       0.00000000       5.40404040       0.00000000       0.00000000       0.01385185
2
Properties=species:S:1:pos:R:3:forces:R:3 energy=-0.03264751431074879 pbc="F F F"
Xe       0.00000000       0.00000000       0.00000000       0.00000000       0.00000000      -0.00614508
Xe       0.00000000       0.00000000       5.46363636       0.00000000       0.00000000       0.00614508
2
Properties=species:S:1:pos:R:3:forces:R:3 energy=-0.032721905581116095 pbc="F F F"
Xe       0.00000000       0.00000000       0.00000000       0.00000000       0.00000000       0.00305755
Xe       0.00000000       0.00000000       5.52323232       0.00000000       0.00000000      -0.00305755
2
Properties=species:S:1:pos:R:3:forces:R:3 energy=-0.032403109959025074 pbc="F F F"
Xe       0.00000000       0.00000000       0.00000000       0.00000000       0.00000000       0.00665775
Xe       0.00000000       0.00000000       5.58282828       0.00000000       0.00000000      -0.00665775
2
Properties=species:S:1:pos:R:3:forces:R:3 energy=-0.03197951123276666 pbc="F F F"
Xe       0.00000000       0.00000000       0.00000000       0.00000000       0.00000000       0.00786092
Xe       0.00000000       0.00000000       5.64242424       0.00000000       0.00000000      -0.00786092
2
Properties=species:S:1:pos:R:3:forces:R:3 energy=-0.03134745556320138 pbc="F F F"
Xe       0.00000000       0.00000000       0.00000000       0.00000000       0.00000000       0.01473609
Xe       0.00000000       0.00000000       5.70202020       0.00000000       0.00000000      -0.01473609
2
Properties=species:S:1:pos:R:3:forces:R:3 energy=-0.030111037065447273 pbc="F F F"
Xe       0.00000000       0.00000000       0.00000000       0.00000000       0.00000000       0.02672404
Xe       0.00000000       0.00000000       5.76161616       0.00000000       0.00000000      -0.02672404
2
Properties=species:S:1:pos:R:3:forces:R:3 energy=-0.028323918474059247 pbc="F F F"
Xe       0.00000000       0.00000000       0.00000000       0.00000000       0.00000000       0.03089183
Xe       0.00000000       0.00000000       5.82121212       0.00000000       0.00000000      -0.03089183
2
Properties=species:S:1:pos:R:3:forces:R:3 energy=-0.026702322091740564 pbc="F F F"
Xe       0.00000000       0.00000000       0.00000000       0.00000000       0.00000000       0.02210167
Xe       0.00000000       0.00000000       5.88080808       0.00000000       0.00000000      -0.02210167
2
Properties=species:S:1:pos:R:3:forces:R:3 energy=-0.025748267112976474 pbc="F F F"
Xe       0.00000000       0.00000000       0.00000000       0.00000000       0.00000000       0.01014136
Xe       0.00000000       0.00000000       5.94040404       0.00000000       0.00000000      -0.01014136
2
Properties=species:S:1:pos:R:3:forces:R:3 energy=-0.025349661953620893 pbc="F F F"
Xe       0.00000000       0.00000000       0.00000000       0.00000000       0.00000000       0.00489970
Xe       0.00000000       0.00000000       6.00000000       0.00000000       0.00000000      -0.00489970
