2
Properties=species:S:1:pos:R:3:forces:R:3 energy=28495.565527324197 pbc="F F F"
Y        0.00000000       0.00000000       0.00000000       0.00000000       0.00000000 -667837.68750000
Y        0.00000000       0.00000000       0.10000000       0.00000000       0.00000000  667837.68750000
2
Properties=species:S:1:pos:R:3:forces:R:3 energy=8608.5430663867 pbc="F F F"
Y        0.00000000       0.00000000       0.00000000       0.00000000       0.00000000 -150332.79687500
Y        0.00000000       0.00000000       0.15959596       0.00000000       0.00000000  150332.79687500
2
Properties=species:S:1:pos:R:3:forces:R:3 energy=3368.8541015429487 pbc="F F F"
Y        0.00000000       0.00000000       0.00000000       0.00000000       0.00000000  -48203.99609375
Y        0.00000000       0.00000000       0.21919192       0.00000000       0.00000000   48203.99609375
2
Properties=species:S:1:pos:R:3:forces:R:3 energy=1527.8665527148235 pbc="F F F"
Y        0.00000000       0.00000000       0.00000000       0.00000000       0.00000000  -18877.97070312
Y        0.00000000       0.00000000       0.27878788       0.00000000       0.00000000   18877.97070312
2
Properties=species:S:1:pos:R:3:forces:R:3 energy=764.7127441337449 pbc="F F F"
Y        0.00000000       0.00000000       0.00000000       0.00000000       0.00000000   -8352.66015625
Y        0.00000000       0.00000000       0.33838384       0.00000000       0.00000000    8352.66015625
2
Properties=species:S:1:pos:R:3:forces:R:3 energy=414.2023986747605 pbc="F F F"
Y        0.00000000       0.00000000       0.00000000       0.00000000       0.00000000   -4003.39941406
Y        0.00000000       0.00000000       0.39797980       0.00000000       0.00000000    4003.39941406
2
Properties=species:S:1:pos:R:3:forces:R:3 energy=241.6377777030808 pbc="F F F"
Y        0.00000000       0.00000000       0.00000000       0.00000000       0.00000000   -2032.91918945
Y        0.00000000       0.00000000       0.45757576       0.00000000       0.00000000    2032.91918945
2
Properties=species:S:1:pos:R:3:forces:R:3 energy=152.13791504485363 pbc="F F F"
Y        0.00000000       0.00000000       0.00000000       0.00000000       0.00000000   -1080.63342285
Y        0.00000000       0.00000000       0.51717172       0.00000000       0.00000000    1080.63342285
2
Properties=species:S:1:pos:R:3:forces:R:3 energy=103.70990603699309 pbc="F F F"
Y        0.00000000       0.00000000       0.00000000       0.00000000       0.00000000    -596.94885254
Y        0.00000000       0.00000000       0.57676768       0.00000000       0.00000000     596.94885254
2
Properties=species:S:1:pos:R:3:forces:R:3 energy=76.54178473711633 pbc="F F F"
Y        0.00000000       0.00000000       0.00000000       0.00000000       0.00000000    -340.94699097
Y        0.00000000       0.00000000       0.63636364       0.00000000       0.00000000     340.94699097
2
Properties=species:S:1:pos:R:3:forces:R:3 energy=60.80551388959612 pbc="F F F"
Y        0.00000000       0.00000000       0.00000000       0.00000000       0.00000000    -200.81320190
Y        0.00000000       0.00000000       0.69595960       0.00000000       0.00000000     200.81320190
2
Properties=species:S:1:pos:R:3:forces:R:3 energy=51.395384437511645 pbc="F F F"
Y        0.00000000       0.00000000       0.00000000       0.00000000       0.00000000    -122.49262238
Y        0.00000000       0.00000000       0.75555556       0.00000000       0.00000000     122.49262238
2
Properties=species:S:1:pos:R:3:forces:R:3 energy=45.51992680688829 pbc="F F F"
Y        0.00000000       0.00000000       0.00000000       0.00000000       0.00000000     -79.09091949
Y        0.00000000       0.00000000       0.81515152       0.00000000       0.00000000      79.09091949
2
Properties=species:S:1:pos:R:3:forces:R:3 energy=41.55251977673077 pbc="F F F"
Y        0.00000000       0.00000000       0.00000000       0.00000000       0.00000000     -56.81311798
Y        0.00000000       0.00000000       0.87474747       0.00000000       0.00000000      56.81311798
2
Properties=species:S:1:pos:R:3:forces:R:3 energy=38.4830925589291 pbc="F F F"
Y        0.00000000       0.00000000       0.00000000       0.00000000       0.00000000     -47.96646881
Y        0.00000000       0.00000000       0.93434343       0.00000000       0.00000000      47.96646881
2
Properties=species:S:1:pos:R:3:forces:R:3 energy=35.66414992172176 pbc="F F F"
Y        0.00000000       0.00000000       0.00000000       0.00000000       0.00000000     -47.79948425
Y        0.00000000       0.00000000       0.99393939       0.00000000       0.00000000      47.79948425
2
Properties=species:S:1:pos:R:3:forces:R:3 energy=32.671718800619594 pbc="F F F"
Y        0.00000000       0.00000000       0.00000000       0.00000000       0.00000000     -53.39369202
Y        0.00000000       0.00000000       1.05353535       0.00000000       0.00000000      53.39369202
2
Properties=species:S:1:pos:R:3:forces:R:3 energy=29.233662551739684 pbc="F F F"
Y        0.00000000       0.00000000       0.00000000       0.00000000       0.00000000     -62.30430222
Y        0.00000000       0.00000000       1.11313131       0.00000000       0.00000000      62.30430222
2
Properties=species:S:1:pos:R:3:forces:R:3 energy=25.237056637290237 pbc="F F F"
Y        0.00000000       0.00000000       0.00000000       0.00000000       0.00000000     -71.65911102
Y        0.00000000       0.00000000       1.17272727       0.00000000       0.00000000      71.65911102
2
Properties=species:S:1:pos:R:3:forces:R:3 energy=20.737073087180427 pbc="F F F"
Y        0.00000000       0.00000000       0.00000000       0.00000000       0.00000000     -78.74217987
Y        0.00000000       0.00000000       1.23232323       0.00000000       0.00000000      78.74217987
2
Properties=species:S:1:pos:R:3:forces:R:3 energy=15.961334937935252 pbc="F F F"
Y        0.00000000       0.00000000       0.00000000       0.00000000       0.00000000     -80.30248260
Y        0.00000000       0.00000000       1.29191919       0.00000000       0.00000000      80.30248260
2
Properties=species:S:1:pos:R:3:forces:R:3 energy=11.332476403009595 pbc="F F F"
Y        0.00000000       0.00000000       0.00000000       0.00000000       0.00000000     -73.63298798
Y        0.00000000       0.00000000       1.35151515       0.00000000       0.00000000      73.63298798
2
Properties=species:S:1:pos:R:3:forces:R:3 energy=7.316767541042658 pbc="F F F"
Y        0.00000000       0.00000000       0.00000000       0.00000000       0.00000000     -60.49084473
Y        0.00000000       0.00000000       1.41111111       0.00000000       0.00000000      60.49084473
2
Properties=species:S:1:pos:R:3:forces:R:3 energy=4.136225728941471 pbc="F F F"
Y        0.00000000       0.00000000       0.00000000       0.00000000       0.00000000     -46.55747604
Y        0.00000000       0.00000000       1.47070707       0.00000000       0.00000000      46.55747604
2
Properties=species:S:1:pos:R:3:forces:R:3 energy=1.71025034222224 pbc="F F F"
Y        0.00000000       0.00000000       0.00000000       0.00000000       0.00000000     -35.33730698
Y        0.00000000       0.00000000       1.53030303       0.00000000       0.00000000      35.33730698
2
Properties=species:S:1:pos:R:3:forces:R:3 energy=-0.11712093425317556 pbc="F F F"
Y        0.00000000       0.00000000       0.00000000       0.00000000       0.00000000     -26.21559525
Y        0.00000000       0.00000000       1.58989899       0.00000000       0.00000000      26.21559525
2
Properties=species:S:1:pos:R:3:forces:R:3 energy=-1.4417033812513578 pbc="F F F"
Y        0.00000000       0.00000000       0.00000000       0.00000000       0.00000000     -18.54680443
Y        0.00000000       0.00000000       1.64949495       0.00000000       0.00000000      18.54680443
2
Properties=species:S:1:pos:R:3:forces:R:3 energy=-2.375331585854857 pbc="F F F"
Y        0.00000000       0.00000000       0.00000000       0.00000000       0.00000000     -13.21079063
Y        0.00000000       0.00000000       1.70909091       0.00000000       0.00000000      13.21079063
2
Properties=species:S:1:pos:R:3:forces:R:3 energy=-3.059636233308286 pbc="F F F"
Y        0.00000000       0.00000000       0.00000000       0.00000000       0.00000000     -10.03171444
Y        0.00000000       0.00000000       1.76868687       0.00000000       0.00000000      10.03171444
2
Properties=species:S:1:pos:R:3:forces:R:3 energy=-3.5949457857172424 pbc="F F F"
Y        0.00000000       0.00000000       0.00000000       0.00000000       0.00000000      -8.07347012
Y        0.00000000       0.00000000       1.82828283       0.00000000       0.00000000       8.07347012
2
Properties=species:S:1:pos:R:3:forces:R:3 energy=-4.0341646018570785 pbc="F F F"
Y        0.00000000       0.00000000       0.00000000       0.00000000       0.00000000      -6.74256134
Y        0.00000000       0.00000000       1.88787879       0.00000000       0.00000000       6.74256134
2
Properties=species:S:1:pos:R:3:forces:R:3 energy=-4.405885478985226 pbc="F F F"
Y        0.00000000       0.00000000       0.00000000       0.00000000       0.00000000      -5.78178692
Y        0.00000000       0.00000000       1.94747475       0.00000000       0.00000000       5.78178692
2
Properties=species:S:1:pos:R:3:forces:R:3 energy=-4.728044317353992 pbc="F F F"
Y        0.00000000       0.00000000       0.00000000       0.00000000       0.00000000      -5.05946684
Y        0.00000000       0.00000000       2.00707071       0.00000000       0.00000000       5.05946684
2
Properties=species:S:1:pos:R:3:forces:R:3 energy=-5.011444906819639 pbc="F F F"
Y        0.00000000       0.00000000       0.00000000       0.00000000       0.00000000      -4.46530390
Y        0.00000000       0.00000000       2.06666667       0.00000000       0.00000000       4.46530390
2
Properties=species:S:1:pos:R:3:forces:R:3 energy=-5.261491109847555 pbc="F F F"
Y        0.00000000       0.00000000       0.00000000       0.00000000       0.00000000      -3.93445206
Y        0.00000000       0.00000000       2.12626263       0.00000000       0.00000000       3.93445206
2
Properties=species:S:1:pos:R:3:forces:R:3 energy=-5.4813766503386905 pbc="F F F"
Y        0.00000000       0.00000000       0.00000000       0.00000000       0.00000000      -3.45293689
Y        0.00000000       0.00000000       2.18585859       0.00000000       0.00000000       3.45293689
2
Properties=species:S:1:pos:R:3:forces:R:3 energy=-5.673995803130451 pbc="F F F"
Y        0.00000000       0.00000000       0.00000000       0.00000000       0.00000000      -3.01861668
Y        0.00000000       0.00000000       2.24545455       0.00000000       0.00000000       3.01861668
2
Properties=species:S:1:pos:R:3:forces:R:3 energy=-5.8419485585059014 pbc="F F F"
Y        0.00000000       0.00000000       0.00000000       0.00000000       0.00000000      -2.62345958
Y        0.00000000       0.00000000       2.30505051       0.00000000       0.00000000       2.62345958
2
Properties=species:S:1:pos:R:3:forces:R:3 energy=-5.987295336161282 pbc="F F F"
Y        0.00000000       0.00000000       0.00000000       0.00000000       0.00000000      -2.25889730
Y        0.00000000       0.00000000       2.36464646       0.00000000       0.00000000       2.25889730
2
Properties=species:S:1:pos:R:3:forces:R:3 energy=-6.111701148418893 pbc="F F F"
Y        0.00000000       0.00000000       0.00000000       0.00000000       0.00000000      -1.92020333
Y        0.00000000       0.00000000       2.42424242       0.00000000       0.00000000       1.92020333
2
Properties=species:S:1:pos:R:3:forces:R:3 energy=-6.216664874872979 pbc="F F F"
Y        0.00000000       0.00000000       0.00000000       0.00000000       0.00000000      -1.60657310
Y        0.00000000       0.00000000       2.48383838       0.00000000       0.00000000       1.60657310
2
Properties=species:S:1:pos:R:3:forces:R:3 energy=-6.30372994205028 pbc="F F F"
Y        0.00000000       0.00000000       0.00000000       0.00000000       0.00000000      -1.31996214
Y        0.00000000       0.00000000       2.54343434       0.00000000       0.00000000       1.31996214
2
Properties=species:S:1:pos:R:3:forces:R:3 energy=-6.374584327508859 pbc="F F F"
Y        0.00000000       0.00000000       0.00000000       0.00000000       0.00000000      -1.06299472
Y        0.00000000       0.00000000       2.60303030       0.00000000       0.00000000       1.06299472
2
Properties=species:S:1:pos:R:3:forces:R:3 energy=-6.431044360046009 pbc="F F F"
Y        0.00000000       0.00000000       0.00000000       0.00000000       0.00000000      -0.83690381
Y        0.00000000       0.00000000       2.66262626       0.00000000       0.00000000       0.83690381
2
Properties=species:S:1:pos:R:3:forces:R:3 energy=-6.474911530510761 pbc="F F F"
Y        0.00000000       0.00000000       0.00000000       0.00000000       0.00000000      -0.63962239
Y        0.00000000       0.00000000       2.72222222       0.00000000       0.00000000       0.63962239
2
Properties=species:S:1:pos:R:3:forces:R:3 energy=-6.507716501286144 pbc="F F F"
Y        0.00000000       0.00000000       0.00000000       0.00000000       0.00000000      -0.46402466
Y        0.00000000       0.00000000       2.78181818       0.00000000       0.00000000       0.46402466
2
Properties=species:S:1:pos:R:3:forces:R:3 energy=-6.530416377730476 pbc="F F F"
Y        0.00000000       0.00000000       0.00000000       0.00000000       0.00000000      -0.29827663
Y        0.00000000       0.00000000       2.84141414       0.00000000       0.00000000       0.29827663
2
Properties=species:S:1:pos:R:3:forces:R:3 energy=-6.543206127433139 pbc="F F F"
Y        0.00000000       0.00000000       0.00000000       0.00000000       0.00000000      -0.12947822
Y        0.00000000       0.00000000       2.90101010       0.00000000       0.00000000       0.12947822
2
Properties=species:S:1:pos:R:3:forces:R:3 energy=-6.5456086891267935 pbc="F F F"
Y        0.00000000       0.00000000       0.00000000       0.00000000       0.00000000       0.05117850
Y        0.00000000       0.00000000       2.96060606       0.00000000       0.00000000      -0.05117850
2
Properties=species:S:1:pos:R:3:forces:R:3 energy=-6.5368407741765715 pbc="F F F"
Y        0.00000000       0.00000000       0.00000000       0.00000000       0.00000000       0.24485300
Y        0.00000000       0.00000000       3.02020202       0.00000000       0.00000000      -0.24485300
2
Properties=species:S:1:pos:R:3:forces:R:3 energy=-6.516300383265989 pbc="F F F"
Y        0.00000000       0.00000000       0.00000000       0.00000000       0.00000000       0.44453201
Y        0.00000000       0.00000000       3.07979798       0.00000000       0.00000000      -0.44453201
2
Properties=species:S:1:pos:R:3:forces:R:3 energy=-6.483991972800871 pbc="F F F"
Y        0.00000000       0.00000000       0.00000000       0.00000000       0.00000000       0.63728219
Y        0.00000000       0.00000000       3.13939394       0.00000000       0.00000000      -0.63728219
2
Properties=species:S:1:pos:R:3:forces:R:3 energy=-6.44077570507162 pbc="F F F"
Y        0.00000000       0.00000000       0.00000000       0.00000000       0.00000000       0.80827767
Y        0.00000000       0.00000000       3.19898990       0.00000000       0.00000000      -0.80827767
2
Properties=species:S:1:pos:R:3:forces:R:3 energy=-6.388329695754351 pbc="F F F"
Y        0.00000000       0.00000000       0.00000000       0.00000000       0.00000000       0.94544727
Y        0.00000000       0.00000000       3.25858586       0.00000000       0.00000000      -0.94544727
2
Properties=species:S:1:pos:R:3:forces:R:3 energy=-6.328874936719824 pbc="F F F"
Y        0.00000000       0.00000000       0.00000000       0.00000000       0.00000000       1.04315650
Y        0.00000000       0.00000000       3.31818182       0.00000000       0.00000000      -1.04315650
2
Properties=species:S:1:pos:R:3:forces:R:3 energy=-6.264735050723778 pbc="F F F"
Y        0.00000000       0.00000000       0.00000000       0.00000000       0.00000000       1.10375273
Y        0.00000000       0.00000000       3.37777778       0.00000000       0.00000000      -1.10375273
2
Properties=species:S:1:pos:R:3:forces:R:3 energy=-6.197871294965905 pbc="F F F"
Y        0.00000000       0.00000000       0.00000000       0.00000000       0.00000000       1.13658261
Y        0.00000000       0.00000000       3.43737374       0.00000000       0.00000000      -1.13658261
2
Properties=species:S:1:pos:R:3:forces:R:3 energy=-6.129569530106165 pbc="F F F"
Y        0.00000000       0.00000000       0.00000000       0.00000000       0.00000000       1.15379250
Y        0.00000000       0.00000000       3.49696970       0.00000000       0.00000000      -1.15379250
2
Properties=species:S:1:pos:R:3:forces:R:3 energy=-6.060508805590839 pbc="F F F"
Y        0.00000000       0.00000000       0.00000000       0.00000000       0.00000000       1.16246009
Y        0.00000000       0.00000000       3.55656566       0.00000000       0.00000000      -1.16246009
2
Properties=species:S:1:pos:R:3:forces:R:3 energy=-5.991243217842538 pbc="F F F"
Y        0.00000000       0.00000000       0.00000000       0.00000000       0.00000000       1.15950131
Y        0.00000000       0.00000000       3.61616162       0.00000000       0.00000000      -1.15950131
2
Properties=species:S:1:pos:R:3:forces:R:3 energy=-5.922664453518643 pbc="F F F"
Y        0.00000000       0.00000000       0.00000000       0.00000000       0.00000000       1.13885748
Y        0.00000000       0.00000000       3.67575758       0.00000000       0.00000000      -1.13885748
2
Properties=species:S:1:pos:R:3:forces:R:3 energy=-5.8558094775883065 pbc="F F F"
Y        0.00000000       0.00000000       0.00000000       0.00000000       0.00000000       1.10301912
Y        0.00000000       0.00000000       3.73535354       0.00000000       0.00000000      -1.10301912
2
Properties=species:S:1:pos:R:3:forces:R:3 energy=-5.791277744062993 pbc="F F F"
Y        0.00000000       0.00000000       0.00000000       0.00000000       0.00000000       1.06288719
Y        0.00000000       0.00000000       3.79494949       0.00000000       0.00000000      -1.06288719
2
Properties=species:S:1:pos:R:3:forces:R:3 energy=-5.729002309890202 pbc="F F F"
Y        0.00000000       0.00000000       0.00000000       0.00000000       0.00000000       1.02845681
Y        0.00000000       0.00000000       3.85454545       0.00000000       0.00000000      -1.02845681
2
Properties=species:S:1:pos:R:3:forces:R:3 energy=-5.668528634161728 pbc="F F F"
Y        0.00000000       0.00000000       0.00000000       0.00000000       0.00000000       1.00211096
Y        0.00000000       0.00000000       3.91414141       0.00000000       0.00000000      -1.00211096
2
Properties=species:S:1:pos:R:3:forces:R:3 energy=-5.609490576031169 pbc="F F F"
Y        0.00000000       0.00000000       0.00000000       0.00000000       0.00000000       0.97912037
Y        0.00000000       0.00000000       3.97373737       0.00000000       0.00000000      -0.97912037
2
Properties=species:S:1:pos:R:3:forces:R:3 energy=-5.551896743531898 pbc="F F F"
Y        0.00000000       0.00000000       0.00000000       0.00000000       0.00000000       0.95263594
Y        0.00000000       0.00000000       4.03333333       0.00000000       0.00000000      -0.95263594
2
Properties=species:S:1:pos:R:3:forces:R:3 energy=-5.496101924950464 pbc="F F F"
Y        0.00000000       0.00000000       0.00000000       0.00000000       0.00000000       0.91834378
Y        0.00000000       0.00000000       4.09292929       0.00000000       0.00000000      -0.91834378
2
Properties=species:S:1:pos:R:3:forces:R:3 energy=-5.442595430599514 pbc="F F F"
Y        0.00000000       0.00000000       0.00000000       0.00000000       0.00000000       0.87617987
Y        0.00000000       0.00000000       4.15252525       0.00000000       0.00000000      -0.87617987
2
Properties=species:S:1:pos:R:3:forces:R:3 energy=-5.391762098080102 pbc="F F F"
Y        0.00000000       0.00000000       0.00000000       0.00000000       0.00000000       0.82937706
Y        0.00000000       0.00000000       4.21212121       0.00000000       0.00000000      -0.82937706
2
Properties=species:S:1:pos:R:3:forces:R:3 energy=-5.343740230838878 pbc="F F F"
Y        0.00000000       0.00000000       0.00000000       0.00000000       0.00000000       0.78255701
Y        0.00000000       0.00000000       4.27171717       0.00000000       0.00000000      -0.78255701
2
Properties=species:S:1:pos:R:3:forces:R:3 energy=-5.2983992278434835 pbc="F F F"
Y        0.00000000       0.00000000       0.00000000       0.00000000       0.00000000       0.74014956
Y        0.00000000       0.00000000       4.33131313       0.00000000       0.00000000      -0.74014956
2
Properties=species:S:1:pos:R:3:forces:R:3 energy=-5.255366609581275 pbc="F F F"
Y        0.00000000       0.00000000       0.00000000       0.00000000       0.00000000       0.70548189
Y        0.00000000       0.00000000       4.39090909       0.00000000       0.00000000      -0.70548189
2
Properties=species:S:1:pos:R:3:forces:R:3 energy=-5.214119792541247 pbc="F F F"
Y        0.00000000       0.00000000       0.00000000       0.00000000       0.00000000       0.68037659
Y        0.00000000       0.00000000       4.45050505       0.00000000       0.00000000      -0.68037659
2
Properties=species:S:1:pos:R:3:forces:R:3 energy=-5.174077813010805 pbc="F F F"
Y        0.00000000       0.00000000       0.00000000       0.00000000       0.00000000       0.66496360
Y        0.00000000       0.00000000       4.51010101       0.00000000       0.00000000      -0.66496360
2
Properties=species:S:1:pos:R:3:forces:R:3 energy=-5.134699835962537 pbc="F F F"
Y        0.00000000       0.00000000       0.00000000       0.00000000       0.00000000       0.65760738
Y        0.00000000       0.00000000       4.56969697       0.00000000       0.00000000      -0.65760738
2
Properties=species:S:1:pos:R:3:forces:R:3 energy=-5.095600402262847 pbc="F F F"
Y        0.00000000       0.00000000       0.00000000       0.00000000       0.00000000       0.65498340
Y        0.00000000       0.00000000       4.62929293       0.00000000       0.00000000      -0.65498340
2
Properties=species:S:1:pos:R:3:forces:R:3 energy=-5.056629849424939 pbc="F F F"
Y        0.00000000       0.00000000       0.00000000       0.00000000       0.00000000       0.65245390
Y        0.00000000       0.00000000       4.68888889       0.00000000       0.00000000      -0.65245390
2
Properties=species:S:1:pos:R:3:forces:R:3 energy=-5.017934983969507 pbc="F F F"
Y        0.00000000       0.00000000       0.00000000       0.00000000       0.00000000       0.64482266
Y        0.00000000       0.00000000       4.74848485       0.00000000       0.00000000      -0.64482266
2
Properties=species:S:1:pos:R:3:forces:R:3 energy=-4.979966062919707 pbc="F F F"
Y        0.00000000       0.00000000       0.00000000       0.00000000       0.00000000       0.62750822
Y        0.00000000       0.00000000       4.80808081       0.00000000       0.00000000      -0.62750822
2
Properties=species:S:1:pos:R:3:forces:R:3 energy=-4.943386327789636 pbc="F F F"
Y        0.00000000       0.00000000       0.00000000       0.00000000       0.00000000       0.59795642
Y        0.00000000       0.00000000       4.86767677       0.00000000       0.00000000      -0.59795642
2
Properties=species:S:1:pos:R:3:forces:R:3 energy=-4.908925526877737 pbc="F F F"
Y        0.00000000       0.00000000       0.00000000       0.00000000       0.00000000       0.55684417
Y        0.00000000       0.00000000       4.92727273       0.00000000       0.00000000      -0.55684417
2
Properties=species:S:1:pos:R:3:forces:R:3 energy=-4.877161314772086 pbc="F F F"
Y        0.00000000       0.00000000       0.00000000       0.00000000       0.00000000       0.50843930
Y        0.00000000       0.00000000       4.98686869       0.00000000       0.00000000      -0.50843930
2
Properties=species:S:1:pos:R:3:forces:R:3 energy=-4.8483353199202055 pbc="F F F"
Y        0.00000000       0.00000000       0.00000000       0.00000000       0.00000000       0.45958135
Y        0.00000000       0.00000000       5.04646465       0.00000000       0.00000000      -0.45958135
2
Properties=species:S:1:pos:R:3:forces:R:3 energy=-4.822257492093437 pbc="F F F"
Y        0.00000000       0.00000000       0.00000000       0.00000000       0.00000000       0.41701436
Y        0.00000000       0.00000000       5.10606061       0.00000000       0.00000000      -0.41701436
2
Properties=species:S:1:pos:R:3:forces:R:3 energy=-4.798439139954073 pbc="F F F"
Y        0.00000000       0.00000000       0.00000000       0.00000000       0.00000000       0.38363141
Y        0.00000000       0.00000000       5.16565657       0.00000000       0.00000000      -0.38363141
2
Properties=species:S:1:pos:R:3:forces:R:3 energy=-4.776420918992475 pbc="F F F"
Y        0.00000000       0.00000000       0.00000000       0.00000000       0.00000000       0.35552028
Y        0.00000000       0.00000000       5.22525253       0.00000000       0.00000000      -0.35552028
2
Properties=species:S:1:pos:R:3:forces:R:3 energy=-4.756129125582748 pbc="F F F"
Y        0.00000000       0.00000000       0.00000000       0.00000000       0.00000000       0.32451349
Y        0.00000000       0.00000000       5.28484848       0.00000000       0.00000000      -0.32451349
2
Properties=species:S:1:pos:R:3:forces:R:3 energy=-4.737779114451533 pbc="F F F"
Y        0.00000000       0.00000000       0.00000000       0.00000000       0.00000000       0.29266897
Y        0.00000000       0.00000000       5.34444444       0.00000000       0.00000000      -0.29266897
2
Properties=species:S:1:pos:R:3:forces:R:3 energy=-4.720719713167418 pbc="F F F"
Y        0.00000000       0.00000000       0.00000000       0.00000000       0.00000000       0.28715688
Y        0.00000000       0.00000000       5.40404040       0.00000000       0.00000000      -0.28715688
2
Properties=species:S:1:pos:R:3:forces:R:3 energy=-4.702646638898714 pbc="F F F"
Y        0.00000000       0.00000000       0.00000000       0.00000000       0.00000000       0.32392052
Y        0.00000000       0.00000000       5.46363636       0.00000000       0.00000000      -0.32392052
2
Properties=species:S:1:pos:R:3:forces:R:3 energy=-4.682296685378098 pbc="F F F"
Y        0.00000000       0.00000000       0.00000000       0.00000000       0.00000000       0.35214552
Y        0.00000000       0.00000000       5.52323232       0.00000000       0.00000000      -0.35214552
2
Properties=species:S:1:pos:R:3:forces:R:3 energy=-4.661712127532258 pbc="F F F"
Y        0.00000000       0.00000000       0.00000000       0.00000000       0.00000000       0.33175164
Y        0.00000000       0.00000000       5.58282828       0.00000000       0.00000000      -0.33175164
2
Properties=species:S:1:pos:R:3:forces:R:3 energy=-4.642962784465297 pbc="F F F"
Y        0.00000000       0.00000000       0.00000000       0.00000000       0.00000000       0.30152851
Y        0.00000000       0.00000000       5.64242424       0.00000000       0.00000000      -0.30152851
2
Properties=species:S:1:pos:R:3:forces:R:3 energy=-4.624778646132657 pbc="F F F"
Y        0.00000000       0.00000000       0.00000000       0.00000000       0.00000000       0.31797057
Y        0.00000000       0.00000000       5.70202020       0.00000000       0.00000000      -0.31797057
2
Properties=species:S:1:pos:R:3:forces:R:3 energy=-4.60453867242896 pbc="F F F"
Y        0.00000000       0.00000000       0.00000000       0.00000000       0.00000000       0.35778847
Y        0.00000000       0.00000000       5.76161616       0.00000000       0.00000000      -0.35778847
2
Properties=species:S:1:pos:R:3:forces:R:3 energy=-4.583687593613116 pbc="F F F"
Y        0.00000000       0.00000000       0.00000000       0.00000000       0.00000000       0.32334465
Y        0.00000000       0.00000000       5.82121212       0.00000000       0.00000000      -0.32334465
2
Properties=species:S:1:pos:R:3:forces:R:3 energy=-4.5678213528586555 pbc="F F F"
Y        0.00000000       0.00000000       0.00000000       0.00000000       0.00000000       0.20262629
Y        0.00000000       0.00000000       5.88080808       0.00000000       0.00000000      -0.20262629
2
Properties=species:S:1:pos:R:3:forces:R:3 energy=-4.559491532166136 pbc="F F F"
Y        0.00000000       0.00000000       0.00000000       0.00000000       0.00000000       0.08197859
Y        0.00000000       0.00000000       5.94040404       0.00000000       0.00000000      -0.08197859
2
Properties=species:S:1:pos:R:3:forces:R:3 energy=-4.556533662656793 pbc="F F F"
Y        0.00000000       0.00000000       0.00000000       0.00000000       0.00000000       0.03343363
Y        0.00000000       0.00000000       6.00000000       0.00000000       0.00000000      -0.03343363
