2
Properties=species:S:1:pos:R:3:forces:R:3 energy=71394.76217351788 pbc="F F F"
Yb       0.00000000       0.00000000       0.00000000       0.00000000       0.00000000 -1790399.12500000
Yb       0.00000000       0.00000000       0.10000000       0.00000000       0.00000000 1790399.12500000
2
Properties=species:S:1:pos:R:3:forces:R:3 energy=19823.39889226788 pbc="F F F"
Yb       0.00000000       0.00000000       0.00000000       0.00000000       0.00000000 -371507.18750000
Yb       0.00000000       0.00000000       0.15959596       0.00000000       0.00000000  371507.18750000
2
Properties=species:S:1:pos:R:3:forces:R:3 energy=7197.077114924132 pbc="F F F"
Yb       0.00000000       0.00000000       0.00000000       0.00000000       0.00000000 -112123.82812500
Yb       0.00000000       0.00000000       0.21919192       0.00000000       0.00000000  112123.82812500
2
Properties=species:S:1:pos:R:3:forces:R:3 energy=3019.0226715647564 pbc="F F F"
Yb       0.00000000       0.00000000       0.00000000       0.00000000       0.00000000  -41388.35937500
Yb       0.00000000       0.00000000       0.27878788       0.00000000       0.00000000   41388.35937500
2
Properties=species:S:1:pos:R:3:forces:R:3 energy=1389.5935944226546 pbc="F F F"
Yb       0.00000000       0.00000000       0.00000000       0.00000000       0.00000000  -17214.89257812
Yb       0.00000000       0.00000000       0.33838384       0.00000000       0.00000000   17214.89257812
2
Properties=species:S:1:pos:R:3:forces:R:3 energy=686.2575958874984 pbc="F F F"
Yb       0.00000000       0.00000000       0.00000000       0.00000000       0.00000000   -7766.15136719
Yb       0.00000000       0.00000000       0.39797980       0.00000000       0.00000000    7766.15136719
2
Properties=species:S:1:pos:R:3:forces:R:3 energy=359.7085846570296 pbc="F F F"
Yb       0.00000000       0.00000000       0.00000000       0.00000000       0.00000000   -3733.33325195
Yb       0.00000000       0.00000000       0.45757576       0.00000000       0.00000000    3733.33325195
2
Properties=species:S:1:pos:R:3:forces:R:3 energy=198.82130134450557 pbc="F F F"
Yb       0.00000000       0.00000000       0.00000000       0.00000000       0.00000000   -1894.99145508
Yb       0.00000000       0.00000000       0.51717172       0.00000000       0.00000000    1894.99145508
2
Properties=species:S:1:pos:R:3:forces:R:3 energy=115.34123697775829 pbc="F F F"
Yb       0.00000000       0.00000000       0.00000000       0.00000000       0.00000000   -1009.49682617
Yb       0.00000000       0.00000000       0.57676768       0.00000000       0.00000000    1009.49682617
2
Properties=species:S:1:pos:R:3:forces:R:3 energy=69.9798478556159 pbc="F F F"
Yb       0.00000000       0.00000000       0.00000000       0.00000000       0.00000000    -561.49743652
Yb       0.00000000       0.00000000       0.63636364       0.00000000       0.00000000     561.49743652
2
Properties=species:S:1:pos:R:3:forces:R:3 energy=44.296864520534854 pbc="F F F"
Yb       0.00000000       0.00000000       0.00000000       0.00000000       0.00000000    -324.54211426
Yb       0.00000000       0.00000000       0.69595960       0.00000000       0.00000000     324.54211426
2
Properties=species:S:1:pos:R:3:forces:R:3 energy=29.21350775826971 pbc="F F F"
Yb       0.00000000       0.00000000       0.00000000       0.00000000       0.00000000    -194.13685608
Yb       0.00000000       0.00000000       0.75555556       0.00000000       0.00000000     194.13685608
2
Properties=species:S:1:pos:R:3:forces:R:3 energy=20.058270699777907 pbc="F F F"
Yb       0.00000000       0.00000000       0.00000000       0.00000000       0.00000000    -119.83277893
Yb       0.00000000       0.00000000       0.81515152       0.00000000       0.00000000     119.83277893
2
Properties=species:S:1:pos:R:3:forces:R:3 energy=14.328738660697237 pbc="F F F"
Yb       0.00000000       0.00000000       0.00000000       0.00000000       0.00000000     -76.19457245
Yb       0.00000000       0.00000000       0.87474747       0.00000000       0.00000000      76.19457245
2
Properties=species:S:1:pos:R:3:forces:R:3 energy=10.63646104381168 pbc="F F F"
Yb       0.00000000       0.00000000       0.00000000       0.00000000       0.00000000     -49.86484528
Yb       0.00000000       0.00000000       0.93434343       0.00000000       0.00000000      49.86484528
2
Properties=species:S:1:pos:R:3:forces:R:3 energy=8.187856859217035 pbc="F F F"
Yb       0.00000000       0.00000000       0.00000000       0.00000000       0.00000000     -33.57309341
Yb       0.00000000       0.00000000       0.99393939       0.00000000       0.00000000      33.57309341
2
Properties=species:S:1:pos:R:3:forces:R:3 energy=6.516990902000757 pbc="F F F"
Yb       0.00000000       0.00000000       0.00000000       0.00000000       0.00000000     -23.27416229
Yb       0.00000000       0.00000000       1.05353535       0.00000000       0.00000000      23.27416229
2
Properties=species:S:1:pos:R:3:forces:R:3 energy=5.337915442172311 pbc="F F F"
Yb       0.00000000       0.00000000       0.00000000       0.00000000       0.00000000     -16.83412933
Yb       0.00000000       0.00000000       1.11313131       0.00000000       0.00000000      16.83412933
2
Properties=species:S:1:pos:R:3:forces:R:3 energy=4.453817385866123 pbc="F F F"
Yb       0.00000000       0.00000000       0.00000000       0.00000000       0.00000000     -13.24113655
Yb       0.00000000       0.00000000       1.17272727       0.00000000       0.00000000      13.24113655
2
Properties=species:S:1:pos:R:3:forces:R:3 energy=3.7248156750767216 pbc="F F F"
Yb       0.00000000       0.00000000       0.00000000       0.00000000       0.00000000     -11.38168049
Yb       0.00000000       0.00000000       1.23232323       0.00000000       0.00000000      11.38168049
2
Properties=species:S:1:pos:R:3:forces:R:3 energy=3.0927200210607446 pbc="F F F"
Yb       0.00000000       0.00000000       0.00000000       0.00000000       0.00000000      -9.77698612
Yb       0.00000000       0.00000000       1.29191919       0.00000000       0.00000000       9.77698612
2
Properties=species:S:1:pos:R:3:forces:R:3 energy=2.57101497784275 pbc="F F F"
Yb       0.00000000       0.00000000       0.00000000       0.00000000       0.00000000      -7.62601662
Yb       0.00000000       0.00000000       1.35151515       0.00000000       0.00000000       7.62601662
2
Properties=species:S:1:pos:R:3:forces:R:3 energy=2.191529527103105 pbc="F F F"
Yb       0.00000000       0.00000000       0.00000000       0.00000000       0.00000000      -5.10618114
Yb       0.00000000       0.00000000       1.41111111       0.00000000       0.00000000       5.10618114
2
Properties=species:S:1:pos:R:3:forces:R:3 energy=1.954850756753866 pbc="F F F"
Yb       0.00000000       0.00000000       0.00000000       0.00000000       0.00000000      -2.95116997
Yb       0.00000000       0.00000000       1.47070707       0.00000000       0.00000000       2.95116997
2
Properties=species:S:1:pos:R:3:forces:R:3 energy=1.8241383483295017 pbc="F F F"
Yb       0.00000000       0.00000000       0.00000000       0.00000000       0.00000000      -1.55927563
Yb       0.00000000       0.00000000       1.53030303       0.00000000       0.00000000       1.55927563
2
Properties=species:S:1:pos:R:3:forces:R:3 energy=1.7576505805509548 pbc="F F F"
Yb       0.00000000       0.00000000       0.00000000       0.00000000       0.00000000      -0.74501055
Yb       0.00000000       0.00000000       1.58989899       0.00000000       0.00000000       0.74501055
2
Properties=species:S:1:pos:R:3:forces:R:3 energy=1.724492887170415 pbc="F F F"
Yb       0.00000000       0.00000000       0.00000000       0.00000000       0.00000000      -0.49839568
Yb       0.00000000       0.00000000       1.64949495       0.00000000       0.00000000       0.49839568
2
Properties=species:S:1:pos:R:3:forces:R:3 energy=1.6801846196146837 pbc="F F F"
Yb       0.00000000       0.00000000       0.00000000       0.00000000       0.00000000      -1.12817657
Yb       0.00000000       0.00000000       1.70909091       0.00000000       0.00000000       1.12817657
2
Properties=species:S:1:pos:R:3:forces:R:3 energy=1.5783960181674928 pbc="F F F"
Yb       0.00000000       0.00000000       0.00000000       0.00000000       0.00000000      -2.34186101
Yb       0.00000000       0.00000000       1.76868687       0.00000000       0.00000000       2.34186101
2
Properties=species:S:1:pos:R:3:forces:R:3 energy=1.3984754935902597 pbc="F F F"
Yb       0.00000000       0.00000000       0.00000000       0.00000000       0.00000000      -3.69408774
Yb       0.00000000       0.00000000       1.82828283       0.00000000       0.00000000       3.69408774
2
Properties=species:S:1:pos:R:3:forces:R:3 energy=1.140059974736783 pbc="F F F"
Yb       0.00000000       0.00000000       0.00000000       0.00000000       0.00000000      -4.95029449
Yb       0.00000000       0.00000000       1.88787879       0.00000000       0.00000000       4.95029449
2
Properties=species:S:1:pos:R:3:forces:R:3 energy=0.81295017448796 pbc="F F F"
Yb       0.00000000       0.00000000       0.00000000       0.00000000       0.00000000      -5.98011208
Yb       0.00000000       0.00000000       1.94747475       0.00000000       0.00000000       5.98011208
2
Properties=species:S:1:pos:R:3:forces:R:3 energy=0.4337322618423624 pbc="F F F"
Yb       0.00000000       0.00000000       0.00000000       0.00000000       0.00000000      -6.68744612
Yb       0.00000000       0.00000000       2.00707071       0.00000000       0.00000000       6.68744612
2
Properties=species:S:1:pos:R:3:forces:R:3 energy=0.0228781518007585 pbc="F F F"
Yb       0.00000000       0.00000000       0.00000000       0.00000000       0.00000000      -7.04423857
Yb       0.00000000       0.00000000       2.06666667       0.00000000       0.00000000       7.04423857
2
Properties=species:S:1:pos:R:3:forces:R:3 energy=-0.3998031813342558 pbc="F F F"
Yb       0.00000000       0.00000000       0.00000000       0.00000000       0.00000000      -7.09574318
Yb       0.00000000       0.00000000       2.12626263       0.00000000       0.00000000       7.09574318
2
Properties=species:S:1:pos:R:3:forces:R:3 energy=-0.8182578812235114 pbc="F F F"
Yb       0.00000000       0.00000000       0.00000000       0.00000000       0.00000000      -6.91448164
Yb       0.00000000       0.00000000       2.18585859       0.00000000       0.00000000       6.91448164
2
Properties=species:S:1:pos:R:3:forces:R:3 energy=-1.2206476948019158 pbc="F F F"
Yb       0.00000000       0.00000000       0.00000000       0.00000000       0.00000000      -6.56625032
Yb       0.00000000       0.00000000       2.24545455       0.00000000       0.00000000       6.56625032
2
Properties=species:S:1:pos:R:3:forces:R:3 energy=-1.5986188438666573 pbc="F F F"
Yb       0.00000000       0.00000000       0.00000000       0.00000000       0.00000000      -6.10254478
Yb       0.00000000       0.00000000       2.30505051       0.00000000       0.00000000       6.10254478
2
Properties=species:S:1:pos:R:3:forces:R:3 energy=-1.9465137752408292 pbc="F F F"
Yb       0.00000000       0.00000000       0.00000000       0.00000000       0.00000000      -5.56276131
Yb       0.00000000       0.00000000       2.36464646       0.00000000       0.00000000       5.56276131
2
Properties=species:S:1:pos:R:3:forces:R:3 energy=-2.260817263729023 pbc="F F F"
Yb       0.00000000       0.00000000       0.00000000       0.00000000       0.00000000      -4.98088503
Yb       0.00000000       0.00000000       2.42424242       0.00000000       0.00000000       4.98088503
2
Properties=species:S:1:pos:R:3:forces:R:3 energy=-2.540056854521572 pbc="F F F"
Yb       0.00000000       0.00000000       0.00000000       0.00000000       0.00000000      -4.39213705
Yb       0.00000000       0.00000000       2.48383838       0.00000000       0.00000000       4.39213705
2
Properties=species:S:1:pos:R:3:forces:R:3 energy=-2.784898793826467 pbc="F F F"
Yb       0.00000000       0.00000000       0.00000000       0.00000000       0.00000000      -3.83208704
Yb       0.00000000       0.00000000       2.54343434       0.00000000       0.00000000       3.83208704
2
Properties=species:S:1:pos:R:3:forces:R:3 energy=-2.997959133998523 pbc="F F F"
Yb       0.00000000       0.00000000       0.00000000       0.00000000       0.00000000      -3.32938695
Yb       0.00000000       0.00000000       2.60303030       0.00000000       0.00000000       3.32938695
2
Properties=species:S:1:pos:R:3:forces:R:3 energy=-3.183192546343904 pbc="F F F"
Yb       0.00000000       0.00000000       0.00000000       0.00000000       0.00000000      -2.89948130
Yb       0.00000000       0.00000000       2.66262626       0.00000000       0.00000000       2.89948130
2
Properties=species:S:1:pos:R:3:forces:R:3 energy=-3.3450320371946325 pbc="F F F"
Yb       0.00000000       0.00000000       0.00000000       0.00000000       0.00000000      -2.54356790
Yb       0.00000000       0.00000000       2.72222222       0.00000000       0.00000000       2.54356790
2
Properties=species:S:1:pos:R:3:forces:R:3 energy=-3.4876426430711103 pbc="F F F"
Yb       0.00000000       0.00000000       0.00000000       0.00000000       0.00000000      -2.25182843
Yb       0.00000000       0.00000000       2.78181818       0.00000000       0.00000000       2.25182843
2
Properties=species:S:1:pos:R:3:forces:R:3 energy=-3.614389700229923 pbc="F F F"
Yb       0.00000000       0.00000000       0.00000000       0.00000000       0.00000000      -2.00823236
Yb       0.00000000       0.00000000       2.84141414       0.00000000       0.00000000       2.00823236
2
Properties=species:S:1:pos:R:3:forces:R:3 energy=-3.7276112032700466 pbc="F F F"
Yb       0.00000000       0.00000000       0.00000000       0.00000000       0.00000000      -1.79508328
Yb       0.00000000       0.00000000       2.90101010       0.00000000       0.00000000       1.79508328
2
Properties=species:S:1:pos:R:3:forces:R:3 energy=-3.82863975464932 pbc="F F F"
Yb       0.00000000       0.00000000       0.00000000       0.00000000       0.00000000      -1.59679246
Yb       0.00000000       0.00000000       2.96060606       0.00000000       0.00000000       1.59679246
2
Properties=species:S:1:pos:R:3:forces:R:3 energy=-3.9180139215868635 pbc="F F F"
Yb       0.00000000       0.00000000       0.00000000       0.00000000       0.00000000      -1.40267336
Yb       0.00000000       0.00000000       3.02020202       0.00000000       0.00000000       1.40267336
2
Properties=species:S:1:pos:R:3:forces:R:3 energy=-3.9958219849689924 pbc="F F F"
Yb       0.00000000       0.00000000       0.00000000       0.00000000       0.00000000      -1.20844364
Yb       0.00000000       0.00000000       3.07979798       0.00000000       0.00000000       1.20844364
2
Properties=species:S:1:pos:R:3:forces:R:3 energy=-4.062081552412298 pbc="F F F"
Yb       0.00000000       0.00000000       0.00000000       0.00000000       0.00000000      -1.01587808
Yb       0.00000000       0.00000000       3.13939394       0.00000000       0.00000000       1.01587808
2
Properties=species:S:1:pos:R:3:forces:R:3 energy=-4.117049572108568 pbc="F F F"
Yb       0.00000000       0.00000000       0.00000000       0.00000000       0.00000000      -0.83060586
Yb       0.00000000       0.00000000       3.19898990       0.00000000       0.00000000       0.83060586
2
Properties=species:S:1:pos:R:3:forces:R:3 energy=-4.161354728828018 pbc="F F F"
Yb       0.00000000       0.00000000       0.00000000       0.00000000       0.00000000      -0.65896529
Yb       0.00000000       0.00000000       3.25858586       0.00000000       0.00000000       0.65896529
2
Properties=species:S:1:pos:R:3:forces:R:3 energy=-4.195952252095207 pbc="F F F"
Yb       0.00000000       0.00000000       0.00000000       0.00000000       0.00000000      -0.50525701
Yb       0.00000000       0.00000000       3.31818182       0.00000000       0.00000000       0.50525701
2
Properties=species:S:1:pos:R:3:forces:R:3 energy=-4.221955309904113 pbc="F F F"
Yb       0.00000000       0.00000000       0.00000000       0.00000000       0.00000000      -0.37045297
Yb       0.00000000       0.00000000       3.37777778       0.00000000       0.00000000       0.37045297
2
Properties=species:S:1:pos:R:3:forces:R:3 energy=-4.240443558599109 pbc="F F F"
Yb       0.00000000       0.00000000       0.00000000       0.00000000       0.00000000      -0.25253096
Yb       0.00000000       0.00000000       3.43737374       0.00000000       0.00000000       0.25253096
2
Properties=species:S:1:pos:R:3:forces:R:3 energy=-4.252317745555575 pbc="F F F"
Yb       0.00000000       0.00000000       0.00000000       0.00000000       0.00000000      -0.14782731
Yb       0.00000000       0.00000000       3.49696970       0.00000000       0.00000000       0.14782731
2
Properties=species:S:1:pos:R:3:forces:R:3 energy=-4.258250601288252 pbc="F F F"
Yb       0.00000000       0.00000000       0.00000000       0.00000000       0.00000000      -0.05259822
Yb       0.00000000       0.00000000       3.55656566       0.00000000       0.00000000       0.05259822
2
Properties=species:S:1:pos:R:3:forces:R:3 energy=-4.258720745574626 pbc="F F F"
Yb       0.00000000       0.00000000       0.00000000       0.00000000       0.00000000       0.03582918
Yb       0.00000000       0.00000000       3.61616162       0.00000000       0.00000000      -0.03582918
2
Properties=species:S:1:pos:R:3:forces:R:3 energy=-4.254093285605952 pbc="F F F"
Yb       0.00000000       0.00000000       0.00000000       0.00000000       0.00000000       0.11850265
Yb       0.00000000       0.00000000       3.67575758       0.00000000       0.00000000      -0.11850265
2
Properties=species:S:1:pos:R:3:forces:R:3 energy=-4.244721909824269 pbc="F F F"
Yb       0.00000000       0.00000000       0.00000000       0.00000000       0.00000000       0.19478519
Yb       0.00000000       0.00000000       3.73535354       0.00000000       0.00000000      -0.19478519
2
Properties=species:S:1:pos:R:3:forces:R:3 energy=-4.231042723472249 pbc="F F F"
Yb       0.00000000       0.00000000       0.00000000       0.00000000       0.00000000       0.26267746
Yb       0.00000000       0.00000000       3.79494949       0.00000000       0.00000000      -0.26267746
2
Properties=species:S:1:pos:R:3:forces:R:3 energy=-4.2136349399608255 pbc="F F F"
Yb       0.00000000       0.00000000       0.00000000       0.00000000       0.00000000       0.31942543
Yb       0.00000000       0.00000000       3.85454545       0.00000000       0.00000000      -0.31942543
2
Properties=species:S:1:pos:R:3:forces:R:3 energy=-4.19324461502115 pbc="F F F"
Yb       0.00000000       0.00000000       0.00000000       0.00000000       0.00000000       0.36237448
Yb       0.00000000       0.00000000       3.91414141       0.00000000       0.00000000      -0.36237448
2
Properties=species:S:1:pos:R:3:forces:R:3 energy=-4.170750841951512 pbc="F F F"
Yb       0.00000000       0.00000000       0.00000000       0.00000000       0.00000000       0.38986468
Yb       0.00000000       0.00000000       3.97373737       0.00000000       0.00000000      -0.38986468
2
Properties=species:S:1:pos:R:3:forces:R:3 energy=-4.1470852865148435 pbc="F F F"
Yb       0.00000000       0.00000000       0.00000000       0.00000000       0.00000000       0.40183985
Yb       0.00000000       0.00000000       4.03333333       0.00000000       0.00000000      -0.40183985
2
Properties=species:S:1:pos:R:3:forces:R:3 energy=-4.123131059447318 pbc="F F F"
Yb       0.00000000       0.00000000       0.00000000       0.00000000       0.00000000       0.39993325
Yb       0.00000000       0.00000000       4.09292929       0.00000000       0.00000000      -0.39993325
2
Properties=species:S:1:pos:R:3:forces:R:3 energy=-4.099634571276166 pbc="F F F"
Yb       0.00000000       0.00000000       0.00000000       0.00000000       0.00000000       0.38704908
Yb       0.00000000       0.00000000       4.15252525       0.00000000       0.00000000      -0.38704908
2
Properties=species:S:1:pos:R:3:forces:R:3 energy=-4.07714643619028 pbc="F F F"
Yb       0.00000000       0.00000000       0.00000000       0.00000000       0.00000000       0.36671034
Yb       0.00000000       0.00000000       4.21212121       0.00000000       0.00000000      -0.36671034
2
Properties=species:S:1:pos:R:3:forces:R:3 energy=-4.056003364899497 pbc="F F F"
Yb       0.00000000       0.00000000       0.00000000       0.00000000       0.00000000       0.34245142
Yb       0.00000000       0.00000000       4.27171717       0.00000000       0.00000000      -0.34245142
2
Properties=species:S:1:pos:R:3:forces:R:3 energy=-4.036344045980629 pbc="F F F"
Yb       0.00000000       0.00000000       0.00000000       0.00000000       0.00000000       0.31741142
Yb       0.00000000       0.00000000       4.33131313       0.00000000       0.00000000      -0.31741142
2
Properties=species:S:1:pos:R:3:forces:R:3 energy=-4.018136236896466 pbc="F F F"
Yb       0.00000000       0.00000000       0.00000000       0.00000000       0.00000000       0.29409030
Yb       0.00000000       0.00000000       4.39090909       0.00000000       0.00000000      -0.29409030
2
Properties=species:S:1:pos:R:3:forces:R:3 energy=-4.001221004481441 pbc="F F F"
Yb       0.00000000       0.00000000       0.00000000       0.00000000       0.00000000       0.27423853
Yb       0.00000000       0.00000000       4.45050505       0.00000000       0.00000000      -0.27423853
2
Properties=species:S:1:pos:R:3:forces:R:3 energy=-3.9853609551866906 pbc="F F F"
Yb       0.00000000       0.00000000       0.00000000       0.00000000       0.00000000       0.25879079
Yb       0.00000000       0.00000000       4.51010101       0.00000000       0.00000000      -0.25879079
2
Properties=species:S:1:pos:R:3:forces:R:3 energy=-3.970285194821202 pbc="F F F"
Yb       0.00000000       0.00000000       0.00000000       0.00000000       0.00000000       0.24785604
Yb       0.00000000       0.00000000       4.56969697       0.00000000       0.00000000      -0.24785604
2
Properties=species:S:1:pos:R:3:forces:R:3 energy=-3.9557413061379574 pbc="F F F"
Yb       0.00000000       0.00000000       0.00000000       0.00000000       0.00000000       0.24078581
Yb       0.00000000       0.00000000       4.62929293       0.00000000       0.00000000      -0.24078581
2
Properties=species:S:1:pos:R:3:forces:R:3 energy=-3.941533343751129 pbc="F F F"
Yb       0.00000000       0.00000000       0.00000000       0.00000000       0.00000000       0.23633343
Yb       0.00000000       0.00000000       4.68888889       0.00000000       0.00000000      -0.23633343
2
Properties=species:S:1:pos:R:3:forces:R:3 energy=-3.927551337019349 pbc="F F F"
Yb       0.00000000       0.00000000       0.00000000       0.00000000       0.00000000       0.23292857
Yb       0.00000000       0.00000000       4.74848485       0.00000000       0.00000000      -0.23292857
2
Properties=species:S:1:pos:R:3:forces:R:3 energy=-3.9137802105675394 pbc="F F F"
Yb       0.00000000       0.00000000       0.00000000       0.00000000       0.00000000       0.22904316
Yb       0.00000000       0.00000000       4.80808081       0.00000000       0.00000000      -0.22904316
2
Properties=species:S:1:pos:R:3:forces:R:3 energy=-3.9002827702046807 pbc="F F F"
Yb       0.00000000       0.00000000       0.00000000       0.00000000       0.00000000       0.22359294
Yb       0.00000000       0.00000000       4.86767677       0.00000000       0.00000000      -0.22359294
2
Properties=species:S:1:pos:R:3:forces:R:3 energy=-3.887167704149059 pbc="F F F"
Yb       0.00000000       0.00000000       0.00000000       0.00000000       0.00000000       0.21623272
Yb       0.00000000       0.00000000       4.92727273       0.00000000       0.00000000      -0.21623272
2
Properties=species:S:1:pos:R:3:forces:R:3 energy=-3.8745380149230906 pbc="F F F"
Yb       0.00000000       0.00000000       0.00000000       0.00000000       0.00000000       0.20745873
Yb       0.00000000       0.00000000       4.98686869       0.00000000       0.00000000      -0.20745873
2
Properties=species:S:1:pos:R:3:forces:R:3 energy=-3.862447458445435 pbc="F F F"
Yb       0.00000000       0.00000000       0.00000000       0.00000000       0.00000000       0.19838674
Yb       0.00000000       0.00000000       5.04646465       0.00000000       0.00000000      -0.19838674
2
Properties=species:S:1:pos:R:3:forces:R:3 energy=-3.850874417021698 pbc="F F F"
Yb       0.00000000       0.00000000       0.00000000       0.00000000       0.00000000       0.19019765
Yb       0.00000000       0.00000000       5.10606061       0.00000000       0.00000000      -0.19019765
2
Properties=species:S:1:pos:R:3:forces:R:3 energy=-3.839750070750633 pbc="F F F"
Yb       0.00000000       0.00000000       0.00000000       0.00000000       0.00000000       0.18324786
Yb       0.00000000       0.00000000       5.16565657       0.00000000       0.00000000      -0.18324786
2
Properties=species:S:1:pos:R:3:forces:R:3 energy=-3.8290326637435754 pbc="F F F"
Yb       0.00000000       0.00000000       0.00000000       0.00000000       0.00000000       0.17621166
Yb       0.00000000       0.00000000       5.22525253       0.00000000       0.00000000      -0.17621166
2
Properties=species:S:1:pos:R:3:forces:R:3 energy=-3.81880233769813 pbc="F F F"
Yb       0.00000000       0.00000000       0.00000000       0.00000000       0.00000000       0.16650146
Yb       0.00000000       0.00000000       5.28484848       0.00000000       0.00000000      -0.16650146
2
Properties=species:S:1:pos:R:3:forces:R:3 energy=-3.809242233473978 pbc="F F F"
Yb       0.00000000       0.00000000       0.00000000       0.00000000       0.00000000       0.15433289
Yb       0.00000000       0.00000000       5.34444444       0.00000000       0.00000000      -0.15433289
2
Properties=species:S:1:pos:R:3:forces:R:3 energy=-3.800302000114387 pbc="F F F"
Yb       0.00000000       0.00000000       0.00000000       0.00000000       0.00000000       0.14745134
Yb       0.00000000       0.00000000       5.40404040       0.00000000       0.00000000      -0.14745134
2
Properties=species:S:1:pos:R:3:forces:R:3 energy=-3.791429227820192 pbc="F F F"
Yb       0.00000000       0.00000000       0.00000000       0.00000000       0.00000000       0.15167962
Yb       0.00000000       0.00000000       5.46363636       0.00000000       0.00000000      -0.15167962
2
Properties=species:S:1:pos:R:3:forces:R:3 energy=-3.782238374455022 pbc="F F F"
Yb       0.00000000       0.00000000       0.00000000       0.00000000       0.00000000       0.15521707
Yb       0.00000000       0.00000000       5.52323232       0.00000000       0.00000000      -0.15521707
2
Properties=species:S:1:pos:R:3:forces:R:3 energy=-3.7732112076524786 pbc="F F F"
Yb       0.00000000       0.00000000       0.00000000       0.00000000       0.00000000       0.14560927
Yb       0.00000000       0.00000000       5.58282828       0.00000000       0.00000000      -0.14560927
2
Properties=species:S:1:pos:R:3:forces:R:3 energy=-3.764953670776105 pbc="F F F"
Yb       0.00000000       0.00000000       0.00000000       0.00000000       0.00000000       0.13287547
Yb       0.00000000       0.00000000       5.64242424       0.00000000       0.00000000      -0.13287547
2
Properties=species:S:1:pos:R:3:forces:R:3 energy=-3.7569969677519284 pbc="F F F"
Yb       0.00000000       0.00000000       0.00000000       0.00000000       0.00000000       0.13812725
Yb       0.00000000       0.00000000       5.70202020       0.00000000       0.00000000      -0.13812725
2
Properties=species:S:1:pos:R:3:forces:R:3 energy=-3.7481440938017614 pbc="F F F"
Yb       0.00000000       0.00000000       0.00000000       0.00000000       0.00000000       0.15938117
Yb       0.00000000       0.00000000       5.76161616       0.00000000       0.00000000      -0.15938117
2
Properties=species:S:1:pos:R:3:forces:R:3 energy=-3.7384695701074704 pbc="F F F"
Yb       0.00000000       0.00000000       0.00000000       0.00000000       0.00000000       0.15762912
Yb       0.00000000       0.00000000       5.82121212       0.00000000       0.00000000      -0.15762912
2
Properties=species:S:1:pos:R:3:forces:R:3 energy=-3.7303170695093057 pbc="F F F"
Yb       0.00000000       0.00000000       0.00000000       0.00000000       0.00000000       0.11090201
Yb       0.00000000       0.00000000       5.88080808       0.00000000       0.00000000      -0.11090201
2
Properties=species:S:1:pos:R:3:forces:R:3 energy=-3.725430364184649 pbc="F F F"
Yb       0.00000000       0.00000000       0.00000000       0.00000000       0.00000000       0.05440206
Yb       0.00000000       0.00000000       5.94040404       0.00000000       0.00000000      -0.05440206
2
Properties=species:S:1:pos:R:3:forces:R:3 energy=-3.723145721512459 pbc="F F F"
Yb       0.00000000       0.00000000       0.00000000       0.00000000       0.00000000       0.03022114
Yb       0.00000000       0.00000000       6.00000000       0.00000000       0.00000000      -0.03022114
