2
Properties=species:S:1:pos:R:3:forces:R:3 energy=-75712.28830103953 pbc="F F F"
Ac       0.00000000       0.00000000       0.00000000       0.00000000       0.00000000 -2659674.00000000
Ac       0.00000000       0.00000000       0.10000000       0.00000000       0.00000000 2659674.00000000
2
Properties=species:S:1:pos:R:3:forces:R:3 energy=-151094.81173853955 pbc="F F F"
Ac       0.00000000       0.00000000       0.00000000       0.00000000       0.00000000 -526669.68750000
Ac       0.00000000       0.00000000       0.15959596       0.00000000       0.00000000  526669.68750000
2
Properties=species:S:1:pos:R:3:forces:R:3 energy=-168236.73361353955 pbc="F F F"
Ac       0.00000000       0.00000000       0.00000000       0.00000000       0.00000000 -134988.42187500
Ac       0.00000000       0.00000000       0.21919192       0.00000000       0.00000000  134988.42187500
2
Properties=species:S:1:pos:R:3:forces:R:3 energy=-171925.60861353955 pbc="F F F"
Ac       0.00000000       0.00000000       0.00000000       0.00000000       0.00000000   -5332.36572266
Ac       0.00000000       0.00000000       0.27878788       0.00000000       0.00000000    5332.36572266
2
Properties=species:S:1:pos:R:3:forces:R:3 energy=-169740.45236353955 pbc="F F F"
Ac       0.00000000       0.00000000       0.00000000       0.00000000       0.00000000   76759.71875000
Ac       0.00000000       0.00000000       0.33838384       0.00000000       0.00000000  -76759.71875000
2
Properties=species:S:1:pos:R:3:forces:R:3 energy=-162734.17111353955 pbc="F F F"
Ac       0.00000000       0.00000000       0.00000000       0.00000000       0.00000000  160158.75000000
Ac       0.00000000       0.00000000       0.39797980       0.00000000       0.00000000 -160158.75000000
2
Properties=species:S:1:pos:R:3:forces:R:3 energy=-150405.45236353955 pbc="F F F"
Ac       0.00000000       0.00000000       0.00000000       0.00000000       0.00000000  255350.43750000
Ac       0.00000000       0.00000000       0.45757576       0.00000000       0.00000000 -255350.43750000
2
Properties=species:S:1:pos:R:3:forces:R:3 energy=-132199.95236353955 pbc="F F F"
Ac       0.00000000       0.00000000       0.00000000       0.00000000       0.00000000  355005.21875000
Ac       0.00000000       0.00000000       0.51717172       0.00000000       0.00000000 -355005.21875000
2
Properties=species:S:1:pos:R:3:forces:R:3 energy=-108412.60861353953 pbc="F F F"
Ac       0.00000000       0.00000000       0.00000000       0.00000000       0.00000000  438254.84375000
Ac       0.00000000       0.00000000       0.57676768       0.00000000       0.00000000 -438254.84375000
2
Properties=species:S:1:pos:R:3:forces:R:3 energy=-80862.4836135332 pbc="F F F"
Ac       0.00000000       0.00000000       0.00000000       0.00000000       0.00000000  476343.25000000
Ac       0.00000000       0.00000000       0.63636364       0.00000000       0.00000000 -476343.25000000
2
Properties=species:S:1:pos:R:3:forces:R:3 energy=-52366.202363530036 pbc="F F F"
Ac       0.00000000       0.00000000       0.00000000       0.00000000       0.00000000  468811.21875000
Ac       0.00000000       0.00000000       0.69595960       0.00000000       0.00000000 -468811.21875000
2
Properties=species:S:1:pos:R:3:forces:R:3 energy=-27509.0422072737 pbc="F F F"
Ac       0.00000000       0.00000000       0.00000000       0.00000000       0.00000000  355029.09375000
Ac       0.00000000       0.00000000       0.75555556       0.00000000       0.00000000 -355029.09375000
2
Properties=species:S:1:pos:R:3:forces:R:3 energy=-10773.649629139194 pbc="F F F"
Ac       0.00000000       0.00000000       0.00000000       0.00000000       0.00000000  205567.76562500
Ac       0.00000000       0.00000000       0.81515152       0.00000000       0.00000000 -205567.76562500
2
Properties=species:S:1:pos:R:3:forces:R:3 energy=-2581.9975295171475 pbc="F F F"
Ac       0.00000000       0.00000000       0.00000000       0.00000000       0.00000000   73027.21093750
Ac       0.00000000       0.00000000       0.87474747       0.00000000       0.00000000  -73027.21093750
2
Properties=species:S:1:pos:R:3:forces:R:3 energy=-322.496613964461 pbc="F F F"
Ac       0.00000000       0.00000000       0.00000000       0.00000000       0.00000000   13620.60546875
Ac       0.00000000       0.00000000       0.93434343       0.00000000       0.00000000  -13620.60546875
2
Properties=species:S:1:pos:R:3:forces:R:3 energy=115.45625166146749 pbc="F F F"
Ac       0.00000000       0.00000000       0.00000000       0.00000000       0.00000000   -2090.53857422
Ac       0.00000000       0.00000000       0.99393939       0.00000000       0.00000000    2090.53857422
2
Properties=species:S:1:pos:R:3:forces:R:3 energy=-181.77739087864364 pbc="F F F"
Ac       0.00000000       0.00000000       0.00000000       0.00000000       0.00000000    1466.27954102
Ac       0.00000000       0.00000000       1.05353535       0.00000000       0.00000000   -1466.27954102
2
Properties=species:S:1:pos:R:3:forces:R:3 energy=-60.754212727372554 pbc="F F F"
Ac       0.00000000       0.00000000       0.00000000       0.00000000       0.00000000    2049.56005859
Ac       0.00000000       0.00000000       1.11313131       0.00000000       0.00000000   -2049.56005859
2
Properties=species:S:1:pos:R:3:forces:R:3 energy=-46.89968995260234 pbc="F F F"
Ac       0.00000000       0.00000000       0.00000000       0.00000000       0.00000000    -297.69201660
Ac       0.00000000       0.00000000       1.17272727       0.00000000       0.00000000     297.69201660
2
Properties=species:S:1:pos:R:3:forces:R:3 energy=-60.70667381799287 pbc="F F F"
Ac       0.00000000       0.00000000       0.00000000       0.00000000       0.00000000    -184.08154297
Ac       0.00000000       0.00000000       1.23232323       0.00000000       0.00000000     184.08154297
2
Properties=species:S:1:pos:R:3:forces:R:3 energy=-69.78892621272833 pbc="F F F"
Ac       0.00000000       0.00000000       0.00000000       0.00000000       0.00000000    -133.47998047
Ac       0.00000000       0.00000000       1.29191919       0.00000000       0.00000000     133.47998047
2
Properties=species:S:1:pos:R:3:forces:R:3 energy=-77.16139311119196 pbc="F F F"
Ac       0.00000000       0.00000000       0.00000000       0.00000000       0.00000000    -111.81642151
Ac       0.00000000       0.00000000       1.35151515       0.00000000       0.00000000     111.81642151
2
Properties=species:S:1:pos:R:3:forces:R:3 energy=-82.90783763911017 pbc="F F F"
Ac       0.00000000       0.00000000       0.00000000       0.00000000       0.00000000     -81.09622192
Ac       0.00000000       0.00000000       1.41111111       0.00000000       0.00000000      81.09622192
2
Properties=species:S:1:pos:R:3:forces:R:3 energy=-87.38830617369827 pbc="F F F"
Ac       0.00000000       0.00000000       0.00000000       0.00000000       0.00000000     -80.80156708
Ac       0.00000000       0.00000000       1.47070707       0.00000000       0.00000000      80.80156708
2
Properties=species:S:1:pos:R:3:forces:R:3 energy=-93.34141565197996 pbc="F F F"
Ac       0.00000000       0.00000000       0.00000000       0.00000000       0.00000000    -112.41966248
Ac       0.00000000       0.00000000       1.53030303       0.00000000       0.00000000     112.41966248
2
Properties=species:S:1:pos:R:3:forces:R:3 energy=-99.83537284522554 pbc="F F F"
Ac       0.00000000       0.00000000       0.00000000       0.00000000       0.00000000    -102.06217194
Ac       0.00000000       0.00000000       1.58989899       0.00000000       0.00000000     102.06217194
2
Properties=species:S:1:pos:R:3:forces:R:3 energy=-105.43894911257183 pbc="F F F"
Ac       0.00000000       0.00000000       0.00000000       0.00000000       0.00000000     -86.60031128
Ac       0.00000000       0.00000000       1.64949495       0.00000000       0.00000000      86.60031128
2
Properties=species:S:1:pos:R:3:forces:R:3 energy=-110.24925137810916 pbc="F F F"
Ac       0.00000000       0.00000000       0.00000000       0.00000000       0.00000000     -75.53887177
Ac       0.00000000       0.00000000       1.70909091       0.00000000       0.00000000      75.53887177
2
Properties=species:S:1:pos:R:3:forces:R:3 energy=-114.49013368460415 pbc="F F F"
Ac       0.00000000       0.00000000       0.00000000       0.00000000       0.00000000     -66.74579620
Ac       0.00000000       0.00000000       1.76868687       0.00000000       0.00000000      66.74579620
2
Properties=species:S:1:pos:R:3:forces:R:3 energy=-118.15144892782678 pbc="F F F"
Ac       0.00000000       0.00000000       0.00000000       0.00000000       0.00000000     -55.44979477
Ac       0.00000000       0.00000000       1.82828283       0.00000000       0.00000000      55.44979477
2
Properties=species:S:1:pos:R:3:forces:R:3 energy=-121.03531348914873 pbc="F F F"
Ac       0.00000000       0.00000000       0.00000000       0.00000000       0.00000000     -41.11647415
Ac       0.00000000       0.00000000       1.88787879       0.00000000       0.00000000      41.11647415
2
Properties=species:S:1:pos:R:3:forces:R:3 energy=-123.07246007661385 pbc="F F F"
Ac       0.00000000       0.00000000       0.00000000       0.00000000       0.00000000     -27.72846413
Ac       0.00000000       0.00000000       1.94747475       0.00000000       0.00000000      27.72846413
2
Properties=species:S:1:pos:R:3:forces:R:3 energy=-124.41463731893832 pbc="F F F"
Ac       0.00000000       0.00000000       0.00000000       0.00000000       0.00000000     -17.98560905
Ac       0.00000000       0.00000000       2.00707071       0.00000000       0.00000000      17.98560905
2
Properties=species:S:1:pos:R:3:forces:R:3 energy=-125.29154338777097 pbc="F F F"
Ac       0.00000000       0.00000000       0.00000000       0.00000000       0.00000000     -12.00610733
Ac       0.00000000       0.00000000       2.06666667       0.00000000       0.00000000      12.00610733
2
Properties=species:S:1:pos:R:3:forces:R:3 energy=-125.90184768502738 pbc="F F F"
Ac       0.00000000       0.00000000       0.00000000       0.00000000       0.00000000      -8.84901714
Ac       0.00000000       0.00000000       2.12626263       0.00000000       0.00000000       8.84901714
2
Properties=species:S:1:pos:R:3:forces:R:3 energy=-126.37971308819698 pbc="F F F"
Ac       0.00000000       0.00000000       0.00000000       0.00000000       0.00000000      -7.38728380
Ac       0.00000000       0.00000000       2.18585859       0.00000000       0.00000000       7.38728380
2
Properties=species:S:1:pos:R:3:forces:R:3 energy=-126.79970927408563 pbc="F F F"
Ac       0.00000000       0.00000000       0.00000000       0.00000000       0.00000000      -6.81735277
Ac       0.00000000       0.00000000       2.24545455       0.00000000       0.00000000       6.81735277
2
Properties=species:S:1:pos:R:3:forces:R:3 energy=-127.20337062217195 pbc="F F F"
Ac       0.00000000       0.00000000       0.00000000       0.00000000       0.00000000      -6.81019592
Ac       0.00000000       0.00000000       2.30505051       0.00000000       0.00000000       6.81019592
2
Properties=species:S:1:pos:R:3:forces:R:3 energy=-127.61949807463664 pbc="F F F"
Ac       0.00000000       0.00000000       0.00000000       0.00000000       0.00000000      -7.20566654
Ac       0.00000000       0.00000000       2.36464646       0.00000000       0.00000000       7.20566654
2
Properties=species:S:1:pos:R:3:forces:R:3 energy=-128.0657612648646 pbc="F F F"
Ac       0.00000000       0.00000000       0.00000000       0.00000000       0.00000000      -7.77796936
Ac       0.00000000       0.00000000       2.42424242       0.00000000       0.00000000       7.77796936
2
Properties=species:S:1:pos:R:3:forces:R:3 energy=-128.54491435993205 pbc="F F F"
Ac       0.00000000       0.00000000       0.00000000       0.00000000       0.00000000      -8.26866341
Ac       0.00000000       0.00000000       2.48383838       0.00000000       0.00000000       8.26866341
2
Properties=species:S:1:pos:R:3:forces:R:3 energy=-129.04555137700092 pbc="F F F"
Ac       0.00000000       0.00000000       0.00000000       0.00000000       0.00000000      -8.47230339
Ac       0.00000000       0.00000000       2.54343434       0.00000000       0.00000000       8.47230339
2
Properties=species:S:1:pos:R:3:forces:R:3 energy=-129.54687452639044 pbc="F F F"
Ac       0.00000000       0.00000000       0.00000000       0.00000000       0.00000000      -8.28449249
Ac       0.00000000       0.00000000       2.60303030       0.00000000       0.00000000       8.28449249
2
Properties=species:S:1:pos:R:3:forces:R:3 energy=-130.02555307527453 pbc="F F F"
Ac       0.00000000       0.00000000       0.00000000       0.00000000       0.00000000      -7.72550535
Ac       0.00000000       0.00000000       2.66262626       0.00000000       0.00000000       7.72550535
2
Properties=species:S:1:pos:R:3:forces:R:3 energy=-130.4626965762695 pbc="F F F"
Ac       0.00000000       0.00000000       0.00000000       0.00000000       0.00000000      -6.91587830
Ac       0.00000000       0.00000000       2.72222222       0.00000000       0.00000000       6.91587830
2
Properties=species:S:1:pos:R:3:forces:R:3 energy=-130.8478221874365 pbc="F F F"
Ac       0.00000000       0.00000000       0.00000000       0.00000000       0.00000000      -6.00218058
Ac       0.00000000       0.00000000       2.78181818       0.00000000       0.00000000       6.00218058
2
Properties=species:S:1:pos:R:3:forces:R:3 energy=-131.17816798875958 pbc="F F F"
Ac       0.00000000       0.00000000       0.00000000       0.00000000       0.00000000      -5.08958721
Ac       0.00000000       0.00000000       2.84141414       0.00000000       0.00000000       5.08958721
2
Properties=species:S:1:pos:R:3:forces:R:3 energy=-131.45547339032512 pbc="F F F"
Ac       0.00000000       0.00000000       0.00000000       0.00000000       0.00000000      -4.22629213
Ac       0.00000000       0.00000000       2.90101010       0.00000000       0.00000000       4.22629213
2
Properties=species:S:1:pos:R:3:forces:R:3 energy=-131.68318684361515 pbc="F F F"
Ac       0.00000000       0.00000000       0.00000000       0.00000000       0.00000000      -3.42665553
Ac       0.00000000       0.00000000       2.96060606       0.00000000       0.00000000       3.42665553
2
Properties=species:S:1:pos:R:3:forces:R:3 energy=-131.8652602989691 pbc="F F F"
Ac       0.00000000       0.00000000       0.00000000       0.00000000       0.00000000      -2.69593096
Ac       0.00000000       0.00000000       3.02020202       0.00000000       0.00000000       2.69593096
2
Properties=species:S:1:pos:R:3:forces:R:3 energy=-132.00596605259778 pbc="F F F"
Ac       0.00000000       0.00000000       0.00000000       0.00000000       0.00000000      -2.03841043
Ac       0.00000000       0.00000000       3.07979798       0.00000000       0.00000000       2.03841043
2
Properties=species:S:1:pos:R:3:forces:R:3 energy=-132.1096986294155 pbc="F F F"
Ac       0.00000000       0.00000000       0.00000000       0.00000000       0.00000000      -1.45502782
Ac       0.00000000       0.00000000       3.13939394       0.00000000       0.00000000       1.45502782
2
Properties=species:S:1:pos:R:3:forces:R:3 energy=-132.18079135128582 pbc="F F F"
Ac       0.00000000       0.00000000       0.00000000       0.00000000       0.00000000      -0.94180250
Ac       0.00000000       0.00000000       3.19898990       0.00000000       0.00000000       0.94180250
2
Properties=species:S:1:pos:R:3:forces:R:3 energy=-132.22324193857972 pbc="F F F"
Ac       0.00000000       0.00000000       0.00000000       0.00000000       0.00000000      -0.49338305
Ac       0.00000000       0.00000000       3.25858586       0.00000000       0.00000000       0.49338305
2
Properties=species:S:1:pos:R:3:forces:R:3 energy=-132.24084970939654 pbc="F F F"
Ac       0.00000000       0.00000000       0.00000000       0.00000000       0.00000000      -0.10847732
Ac       0.00000000       0.00000000       3.31818182       0.00000000       0.00000000       0.10847732
2
Properties=species:S:1:pos:R:3:forces:R:3 energy=-132.23753602046986 pbc="F F F"
Ac       0.00000000       0.00000000       0.00000000       0.00000000       0.00000000       0.20797218
Ac       0.00000000       0.00000000       3.37777778       0.00000000       0.00000000      -0.20797218
2
Properties=species:S:1:pos:R:3:forces:R:3 energy=-132.2175885408411 pbc="F F F"
Ac       0.00000000       0.00000000       0.00000000       0.00000000       0.00000000       0.44824591
Ac       0.00000000       0.00000000       3.43737374       0.00000000       0.00000000      -0.44824591
2
Properties=species:S:1:pos:R:3:forces:R:3 energy=-132.1856915033405 pbc="F F F"
Ac       0.00000000       0.00000000       0.00000000       0.00000000       0.00000000       0.60911393
Ac       0.00000000       0.00000000       3.49696970       0.00000000       0.00000000      -0.60911393
2
Properties=species:S:1:pos:R:3:forces:R:3 energy=-132.14642238312797 pbc="F F F"
Ac       0.00000000       0.00000000       0.00000000       0.00000000       0.00000000       0.69817668
Ac       0.00000000       0.00000000       3.55656566       0.00000000       0.00000000      -0.69817668
2
Properties=species:S:1:pos:R:3:forces:R:3 energy=-132.1035194758178 pbc="F F F"
Ac       0.00000000       0.00000000       0.00000000       0.00000000       0.00000000       0.73451167
Ac       0.00000000       0.00000000       3.61616162       0.00000000       0.00000000      -0.73451167
2
Properties=species:S:1:pos:R:3:forces:R:3 energy=-132.05942399759064 pbc="F F F"
Ac       0.00000000       0.00000000       0.00000000       0.00000000       0.00000000       0.74297667
Ac       0.00000000       0.00000000       3.67575758       0.00000000       0.00000000      -0.74297667
2
Properties=species:S:1:pos:R:3:forces:R:3 energy=-132.01506653500658 pbc="F F F"
Ac       0.00000000       0.00000000       0.00000000       0.00000000       0.00000000       0.74596119
Ac       0.00000000       0.00000000       3.73535354       0.00000000       0.00000000      -0.74596119
2
Properties=species:S:1:pos:R:3:forces:R:3 energy=-131.97034011815106 pbc="F F F"
Ac       0.00000000       0.00000000       0.00000000       0.00000000       0.00000000       0.75734621
Ac       0.00000000       0.00000000       3.79494949       0.00000000       0.00000000      -0.75734621
2
Properties=species:S:1:pos:R:3:forces:R:3 energy=-131.92455784492262 pbc="F F F"
Ac       0.00000000       0.00000000       0.00000000       0.00000000       0.00000000       0.78070623
Ac       0.00000000       0.00000000       3.85454545       0.00000000       0.00000000      -0.78070623
2
Properties=species:S:1:pos:R:3:forces:R:3 energy=-131.87713968809976 pbc="F F F"
Ac       0.00000000       0.00000000       0.00000000       0.00000000       0.00000000       0.81122863
Ac       0.00000000       0.00000000       3.91414141       0.00000000       0.00000000      -0.81122863
2
Properties=species:S:1:pos:R:3:forces:R:3 energy=-131.82790230779491 pbc="F F F"
Ac       0.00000000       0.00000000       0.00000000       0.00000000       0.00000000       0.83989799
Ac       0.00000000       0.00000000       3.97373737       0.00000000       0.00000000      -0.83989799
2
Properties=species:S:1:pos:R:3:forces:R:3 energy=-131.77722700267225 pbc="F F F"
Ac       0.00000000       0.00000000       0.00000000       0.00000000       0.00000000       0.85851610
Ac       0.00000000       0.00000000       4.03333333       0.00000000       0.00000000      -0.85851610
2
Properties=species:S:1:pos:R:3:forces:R:3 energy=-131.72584590316708 pbc="F F F"
Ac       0.00000000       0.00000000       0.00000000       0.00000000       0.00000000       0.86331612
Ac       0.00000000       0.00000000       4.09292929       0.00000000       0.00000000      -0.86331612
2
Properties=species:S:1:pos:R:3:forces:R:3 energy=-131.67458275897346 pbc="F F F"
Ac       0.00000000       0.00000000       0.00000000       0.00000000       0.00000000       0.85555470
Ac       0.00000000       0.00000000       4.15252525       0.00000000       0.00000000      -0.85555470
2
Properties=species:S:1:pos:R:3:forces:R:3 energy=-131.62403241260685 pbc="F F F"
Ac       0.00000000       0.00000000       0.00000000       0.00000000       0.00000000       0.83968002
Ac       0.00000000       0.00000000       4.21212121       0.00000000       0.00000000      -0.83968002
2
Properties=species:S:1:pos:R:3:forces:R:3 energy=-131.57454552160823 pbc="F F F"
Ac       0.00000000       0.00000000       0.00000000       0.00000000       0.00000000       0.82108617
Ac       0.00000000       0.00000000       4.27171717       0.00000000       0.00000000      -0.82108617
2
Properties=species:S:1:pos:R:3:forces:R:3 energy=-131.52612186106225 pbc="F F F"
Ac       0.00000000       0.00000000       0.00000000       0.00000000       0.00000000       0.80476296
Ac       0.00000000       0.00000000       4.33131313       0.00000000       0.00000000      -0.80476296
2
Properties=species:S:1:pos:R:3:forces:R:3 energy=-131.47850172110824 pbc="F F F"
Ac       0.00000000       0.00000000       0.00000000       0.00000000       0.00000000       0.79479611
Ac       0.00000000       0.00000000       4.39090909       0.00000000       0.00000000      -0.79479611
2
Properties=species:S:1:pos:R:3:forces:R:3 energy=-131.4312117783422 pbc="F F F"
Ac       0.00000000       0.00000000       0.00000000       0.00000000       0.00000000       0.79406679
Ac       0.00000000       0.00000000       4.45050505       0.00000000       0.00000000      -0.79406679
2
Properties=species:S:1:pos:R:3:forces:R:3 energy=-131.38364138659415 pbc="F F F"
Ac       0.00000000       0.00000000       0.00000000       0.00000000       0.00000000       0.80383688
Ac       0.00000000       0.00000000       4.51010101       0.00000000       0.00000000      -0.80383688
2
Properties=species:S:1:pos:R:3:forces:R:3 energy=-131.33519513947624 pbc="F F F"
Ac       0.00000000       0.00000000       0.00000000       0.00000000       0.00000000       0.82337594
Ac       0.00000000       0.00000000       4.56969697       0.00000000       0.00000000      -0.82337594
2
Properties=species:S:1:pos:R:3:forces:R:3 energy=-131.28536917699938 pbc="F F F"
Ac       0.00000000       0.00000000       0.00000000       0.00000000       0.00000000       0.84991747
Ac       0.00000000       0.00000000       4.62929293       0.00000000       0.00000000      -0.84991747
2
Properties=species:S:1:pos:R:3:forces:R:3 energy=-131.23384274781108 pbc="F F F"
Ac       0.00000000       0.00000000       0.00000000       0.00000000       0.00000000       0.87913758
Ac       0.00000000       0.00000000       4.68888889       0.00000000       0.00000000      -0.87913758
2
Properties=species:S:1:pos:R:3:forces:R:3 energy=-131.1806155224578 pbc="F F F"
Ac       0.00000000       0.00000000       0.00000000       0.00000000       0.00000000       0.90618503
Ac       0.00000000       0.00000000       4.74848485       0.00000000       0.00000000      -0.90618503
2
Properties=species:S:1:pos:R:3:forces:R:3 energy=-131.12596182968917 pbc="F F F"
Ac       0.00000000       0.00000000       0.00000000       0.00000000       0.00000000       0.92712688
Ac       0.00000000       0.00000000       4.80808081       0.00000000       0.00000000      -0.92712688
2
Properties=species:S:1:pos:R:3:forces:R:3 energy=-131.07027806223167 pbc="F F F"
Ac       0.00000000       0.00000000       0.00000000       0.00000000       0.00000000       0.94029993
Ac       0.00000000       0.00000000       4.86767677       0.00000000       0.00000000      -0.94029993
2
Properties=species:S:1:pos:R:3:forces:R:3 energy=-131.01400640185022 pbc="F F F"
Ac       0.00000000       0.00000000       0.00000000       0.00000000       0.00000000       0.94694394
Ac       0.00000000       0.00000000       4.92727273       0.00000000       0.00000000      -0.94694394
2
Properties=species:S:1:pos:R:3:forces:R:3 energy=-130.95746694732605 pbc="F F F"
Ac       0.00000000       0.00000000       0.00000000       0.00000000       0.00000000       0.95078015
Ac       0.00000000       0.00000000       4.98686869       0.00000000       0.00000000      -0.95078015
2
Properties=species:S:1:pos:R:3:forces:R:3 energy=-130.90065937554127 pbc="F F F"
Ac       0.00000000       0.00000000       0.00000000       0.00000000       0.00000000       0.95628691
Ac       0.00000000       0.00000000       5.04646465       0.00000000       0.00000000      -0.95628691
2
Properties=species:S:1:pos:R:3:forces:R:3 energy=-130.84340026107705 pbc="F F F"
Ac       0.00000000       0.00000000       0.00000000       0.00000000       0.00000000       0.96608859
Ac       0.00000000       0.00000000       5.10606061       0.00000000       0.00000000      -0.96608859
2
Properties=species:S:1:pos:R:3:forces:R:3 energy=-130.78546040848312 pbc="F F F"
Ac       0.00000000       0.00000000       0.00000000       0.00000000       0.00000000       0.97782946
Ac       0.00000000       0.00000000       5.16565657       0.00000000       0.00000000      -0.97782946
2
Properties=species:S:1:pos:R:3:forces:R:3 energy=-130.72699210787482 pbc="F F F"
Ac       0.00000000       0.00000000       0.00000000       0.00000000       0.00000000       0.98139274
Ac       0.00000000       0.00000000       5.22525253       0.00000000       0.00000000      -0.98139274
2
Properties=species:S:1:pos:R:3:forces:R:3 energy=-130.6690021478906 pbc="F F F"
Ac       0.00000000       0.00000000       0.00000000       0.00000000       0.00000000       0.95951283
Ac       0.00000000       0.00000000       5.28484848       0.00000000       0.00000000      -0.95951283
2
Properties=species:S:1:pos:R:3:forces:R:3 energy=-130.61336709665594 pbc="F F F"
Ac       0.00000000       0.00000000       0.00000000       0.00000000       0.00000000       0.90181732
Ac       0.00000000       0.00000000       5.34444444       0.00000000       0.00000000      -0.90181732
2
Properties=species:S:1:pos:R:3:forces:R:3 energy=-130.56165835285066 pbc="F F F"
Ac       0.00000000       0.00000000       0.00000000       0.00000000       0.00000000       0.83804524
Ac       0.00000000       0.00000000       5.40404040       0.00000000       0.00000000      -0.83804524
2
Properties=species:S:1:pos:R:3:forces:R:3 energy=-130.51233454752847 pbc="F F F"
Ac       0.00000000       0.00000000       0.00000000       0.00000000       0.00000000       0.82796478
Ac       0.00000000       0.00000000       5.46363636       0.00000000       0.00000000      -0.82796478
2
Properties=species:S:1:pos:R:3:forces:R:3 energy=-130.46242002041714 pbc="F F F"
Ac       0.00000000       0.00000000       0.00000000       0.00000000       0.00000000       0.84256101
Ac       0.00000000       0.00000000       5.52323232       0.00000000       0.00000000      -0.84256101
2
Properties=species:S:1:pos:R:3:forces:R:3 energy=-130.4135167733059 pbc="F F F"
Ac       0.00000000       0.00000000       0.00000000       0.00000000       0.00000000       0.78244513
Ac       0.00000000       0.00000000       5.58282828       0.00000000       0.00000000      -0.78244513
2
Properties=species:S:1:pos:R:3:forces:R:3 energy=-130.37027858955508 pbc="F F F"
Ac       0.00000000       0.00000000       0.00000000       0.00000000       0.00000000       0.67034471
Ac       0.00000000       0.00000000       5.64242424       0.00000000       0.00000000      -0.67034471
2
Properties=species:S:1:pos:R:3:forces:R:3 energy=-130.33201872387042 pbc="F F F"
Ac       0.00000000       0.00000000       0.00000000       0.00000000       0.00000000       0.63525677
Ac       0.00000000       0.00000000       5.70202020       0.00000000       0.00000000      -0.63525677
2
Properties=species:S:1:pos:R:3:forces:R:3 energy=-130.2921910908038 pbc="F F F"
Ac       0.00000000       0.00000000       0.00000000       0.00000000       0.00000000       0.70948356
Ac       0.00000000       0.00000000       5.76161616       0.00000000       0.00000000      -0.70948356
2
Properties=species:S:1:pos:R:3:forces:R:3 energy=-130.24943763120217 pbc="F F F"
Ac       0.00000000       0.00000000       0.00000000       0.00000000       0.00000000       0.68681705
Ac       0.00000000       0.00000000       5.82121212       0.00000000       0.00000000      -0.68681705
2
Properties=species:S:1:pos:R:3:forces:R:3 energy=-130.2152634989451 pbc="F F F"
Ac       0.00000000       0.00000000       0.00000000       0.00000000       0.00000000       0.43334532
Ac       0.00000000       0.00000000       5.88080808       0.00000000       0.00000000      -0.43334532
2
Properties=species:S:1:pos:R:3:forces:R:3 energy=-130.1986561873147 pbc="F F F"
Ac       0.00000000       0.00000000       0.00000000       0.00000000       0.00000000       0.13153213
Ac       0.00000000       0.00000000       5.94040404       0.00000000       0.00000000      -0.13153213
2
Properties=species:S:1:pos:R:3:forces:R:3 energy=-130.19584689737368 pbc="F F F"
Ac       0.00000000       0.00000000       0.00000000       0.00000000       0.00000000       0.00549774
Ac       0.00000000       0.00000000       6.00000000       0.00000000       0.00000000      -0.00549774
