2
Properties=species:S:1:pos:R:3:forces:R:3 energy=38194.34192432984 pbc="F F F"
Ag       0.00000000       0.00000000       0.00000000       0.00000000       0.00000000 -917602.87500000
Ag       0.00000000       0.00000000       0.10000000       0.00000000       0.00000000  917602.87500000
2
Properties=species:S:1:pos:R:3:forces:R:3 energy=11155.87708057984 pbc="F F F"
Ag       0.00000000       0.00000000       0.00000000       0.00000000       0.00000000 -201299.81250000
Ag       0.00000000       0.00000000       0.15959596       0.00000000       0.00000000  201299.81250000
2
Properties=species:S:1:pos:R:3:forces:R:3 energy=4195.733525892339 pbc="F F F"
Ag       0.00000000       0.00000000       0.00000000       0.00000000       0.00000000  -63323.32031250
Ag       0.00000000       0.00000000       0.21919192       0.00000000       0.00000000   63323.32031250
2
Properties=species:S:1:pos:R:3:forces:R:3 energy=1796.7977348767138 pbc="F F F"
Ag       0.00000000       0.00000000       0.00000000       0.00000000       0.00000000  -24308.18554688
Ag       0.00000000       0.00000000       0.27878788       0.00000000       0.00000000   24308.18554688
2
Properties=species:S:1:pos:R:3:forces:R:3 energy=825.0927788228183 pbc="F F F"
Ag       0.00000000       0.00000000       0.00000000       0.00000000       0.00000000  -10451.92187500
Ag       0.00000000       0.00000000       0.33838384       0.00000000       0.00000000   10451.92187500
2
Properties=species:S:1:pos:R:3:forces:R:3 energy=395.15845265094333 pbc="F F F"
Ag       0.00000000       0.00000000       0.00000000       0.00000000       0.00000000   -4753.17578125
Ag       0.00000000       0.00000000       0.39797980       0.00000000       0.00000000    4753.17578125
2
Properties=species:S:1:pos:R:3:forces:R:3 energy=198.77846302850378 pbc="F F F"
Ag       0.00000000       0.00000000       0.00000000       0.00000000       0.00000000   -2155.25781250
Ag       0.00000000       0.00000000       0.45757576       0.00000000       0.00000000    2155.25781250
2
Properties=species:S:1:pos:R:3:forces:R:3 energy=112.49463429552809 pbc="F F F"
Ag       0.00000000       0.00000000       0.00000000       0.00000000       0.00000000    -886.62408447
Ag       0.00000000       0.00000000       0.51717172       0.00000000       0.00000000     886.62408447
2
Properties=species:S:1:pos:R:3:forces:R:3 energy=80.5338646453756 pbc="F F F"
Ag       0.00000000       0.00000000       0.00000000       0.00000000       0.00000000    -262.02777100
Ag       0.00000000       0.00000000       0.57676768       0.00000000       0.00000000     262.02777100
2
Properties=species:S:1:pos:R:3:forces:R:3 energy=74.95354238608624 pbc="F F F"
Ag       0.00000000       0.00000000       0.00000000       0.00000000       0.00000000     164.97802734
Ag       0.00000000       0.00000000       0.63636364       0.00000000       0.00000000    -164.97802734
2
Properties=species:S:1:pos:R:3:forces:R:3 energy=81.85236136610823 pbc="F F F"
Ag       0.00000000       0.00000000       0.00000000       0.00000000       0.00000000      61.68516541
Ag       0.00000000       0.00000000       0.69595960       0.00000000       0.00000000     -61.68516541
2
Properties=species:S:1:pos:R:3:forces:R:3 energy=83.33646172295227 pbc="F F F"
Ag       0.00000000       0.00000000       0.00000000       0.00000000       0.00000000     -73.38513184
Ag       0.00000000       0.00000000       0.75555556       0.00000000       0.00000000      73.38513184
2
Properties=species:S:1:pos:R:3:forces:R:3 energy=64.74564143421092 pbc="F F F"
Ag       0.00000000       0.00000000       0.00000000       0.00000000       0.00000000    -307.07269287
Ag       0.00000000       0.00000000       0.81515152       0.00000000       0.00000000     307.07269287
2
Properties=species:S:1:pos:R:3:forces:R:3 energy=49.012719865547346 pbc="F F F"
Ag       0.00000000       0.00000000       0.00000000       0.00000000       0.00000000    -228.41052246
Ag       0.00000000       0.00000000       0.87474747       0.00000000       0.00000000     228.41052246
2
Properties=species:S:1:pos:R:3:forces:R:3 energy=36.903016849099835 pbc="F F F"
Ag       0.00000000       0.00000000       0.00000000       0.00000000       0.00000000    -177.64099121
Ag       0.00000000       0.00000000       0.93434343       0.00000000       0.00000000     177.64099121
2
Properties=species:S:1:pos:R:3:forces:R:3 energy=27.344224799782378 pbc="F F F"
Ag       0.00000000       0.00000000       0.00000000       0.00000000       0.00000000    -149.69348145
Ag       0.00000000       0.00000000       0.99393939       0.00000000       0.00000000     149.69348145
2
Properties=species:S:1:pos:R:3:forces:R:3 energy=18.62405200481741 pbc="F F F"
Ag       0.00000000       0.00000000       0.00000000       0.00000000       0.00000000    -143.89605713
Ag       0.00000000       0.00000000       1.05353535       0.00000000       0.00000000     143.89605713
2
Properties=species:S:1:pos:R:3:forces:R:3 energy=10.180952146440893 pbc="F F F"
Ag       0.00000000       0.00000000       0.00000000       0.00000000       0.00000000    -139.21734619
Ag       0.00000000       0.00000000       1.11313131       0.00000000       0.00000000     139.21734619
2
Properties=species:S:1:pos:R:3:forces:R:3 energy=2.0986578351769825 pbc="F F F"
Ag       0.00000000       0.00000000       0.00000000       0.00000000       0.00000000    -131.02413940
Ag       0.00000000       0.00000000       1.17272727       0.00000000       0.00000000     131.02413940
2
Properties=species:S:1:pos:R:3:forces:R:3 energy=-5.270722918553823 pbc="F F F"
Ag       0.00000000       0.00000000       0.00000000       0.00000000       0.00000000    -114.66426849
Ag       0.00000000       0.00000000       1.23232323       0.00000000       0.00000000     114.66426849
2
Properties=species:S:1:pos:R:3:forces:R:3 energy=-11.403094566801917 pbc="F F F"
Ag       0.00000000       0.00000000       0.00000000       0.00000000       0.00000000     -90.39328766
Ag       0.00000000       0.00000000       1.29191919       0.00000000       0.00000000      90.39328766
2
Properties=species:S:1:pos:R:3:forces:R:3 energy=-16.080603555505164 pbc="F F F"
Ag       0.00000000       0.00000000       0.00000000       0.00000000       0.00000000     -67.80710602
Ag       0.00000000       0.00000000       1.35151515       0.00000000       0.00000000      67.80710602
2
Properties=species:S:1:pos:R:3:forces:R:3 energy=-19.663240941640897 pbc="F F F"
Ag       0.00000000       0.00000000       0.00000000       0.00000000       0.00000000     -53.75992203
Ag       0.00000000       0.00000000       1.41111111       0.00000000       0.00000000      53.75992203
2
Properties=species:S:1:pos:R:3:forces:R:3 energy=-22.603332531876767 pbc="F F F"
Ag       0.00000000       0.00000000       0.00000000       0.00000000       0.00000000     -45.54745102
Ag       0.00000000       0.00000000       1.47070707       0.00000000       0.00000000      45.54745102
2
Properties=species:S:1:pos:R:3:forces:R:3 energy=-25.14175355213842 pbc="F F F"
Ag       0.00000000       0.00000000       0.00000000       0.00000000       0.00000000     -39.88651657
Ag       0.00000000       0.00000000       1.53030303       0.00000000       0.00000000      39.88651657
2
Properties=species:S:1:pos:R:3:forces:R:3 energy=-27.37469729622561 pbc="F F F"
Ag       0.00000000       0.00000000       0.00000000       0.00000000       0.00000000     -35.13109970
Ag       0.00000000       0.00000000       1.58989899       0.00000000       0.00000000      35.13109970
2
Properties=species:S:1:pos:R:3:forces:R:3 energy=-29.336282391139495 pbc="F F F"
Ag       0.00000000       0.00000000       0.00000000       0.00000000       0.00000000     -30.75281906
Ag       0.00000000       0.00000000       1.64949495       0.00000000       0.00000000      30.75281906
2
Properties=species:S:1:pos:R:3:forces:R:3 energy=-31.047111993845018 pbc="F F F"
Ag       0.00000000       0.00000000       0.00000000       0.00000000       0.00000000     -26.72163963
Ag       0.00000000       0.00000000       1.70909091       0.00000000       0.00000000      26.72163963
2
Properties=species:S:1:pos:R:3:forces:R:3 energy=-32.52800287643442 pbc="F F F"
Ag       0.00000000       0.00000000       0.00000000       0.00000000       0.00000000     -23.02657318
Ag       0.00000000       0.00000000       1.76868687       0.00000000       0.00000000      23.02657318
2
Properties=species:S:1:pos:R:3:forces:R:3 energy=-33.79710152449793 pbc="F F F"
Ag       0.00000000       0.00000000       0.00000000       0.00000000       0.00000000     -19.60695457
Ag       0.00000000       0.00000000       1.82828283       0.00000000       0.00000000      19.60695457
2
Properties=species:S:1:pos:R:3:forces:R:3 energy=-34.870521187607324 pbc="F F F"
Ag       0.00000000       0.00000000       0.00000000       0.00000000       0.00000000     -16.46742249
Ag       0.00000000       0.00000000       1.88787879       0.00000000       0.00000000      16.46742249
2
Properties=species:S:1:pos:R:3:forces:R:3 energy=-35.766450312230795 pbc="F F F"
Ag       0.00000000       0.00000000       0.00000000       0.00000000       0.00000000     -13.65628910
Ag       0.00000000       0.00000000       1.94747475       0.00000000       0.00000000      13.65628910
2
Properties=species:S:1:pos:R:3:forces:R:3 energy=-36.504961802909875 pbc="F F F"
Ag       0.00000000       0.00000000       0.00000000       0.00000000       0.00000000     -11.18169308
Ag       0.00000000       0.00000000       2.00707071       0.00000000       0.00000000      11.18169308
2
Properties=species:S:1:pos:R:3:forces:R:3 energy=-37.1052016117575 pbc="F F F"
Ag       0.00000000       0.00000000       0.00000000       0.00000000       0.00000000      -9.00855541
Ag       0.00000000       0.00000000       2.06666667       0.00000000       0.00000000       9.00855541
2
Properties=species:S:1:pos:R:3:forces:R:3 energy=-37.58389718073975 pbc="F F F"
Ag       0.00000000       0.00000000       0.00000000       0.00000000       0.00000000      -7.09709072
Ag       0.00000000       0.00000000       2.12626263       0.00000000       0.00000000       7.09709072
2
Properties=species:S:1:pos:R:3:forces:R:3 energy=-37.95582667794991 pbc="F F F"
Ag       0.00000000       0.00000000       0.00000000       0.00000000       0.00000000      -5.42323112
Ag       0.00000000       0.00000000       2.18585859       0.00000000       0.00000000       5.42323112
2
Properties=species:S:1:pos:R:3:forces:R:3 energy=-38.234829904263236 pbc="F F F"
Ag       0.00000000       0.00000000       0.00000000       0.00000000       0.00000000      -3.97769094
Ag       0.00000000       0.00000000       2.24545455       0.00000000       0.00000000       3.97769094
2
Properties=species:S:1:pos:R:3:forces:R:3 energy=-38.434418672617845 pbc="F F F"
Ag       0.00000000       0.00000000       0.00000000       0.00000000       0.00000000      -2.75770712
Ag       0.00000000       0.00000000       2.30505051       0.00000000       0.00000000       2.75770712
2
Properties=species:S:1:pos:R:3:forces:R:3 energy=-38.567921817196 pbc="F F F"
Ag       0.00000000       0.00000000       0.00000000       0.00000000       0.00000000      -1.75863123
Ag       0.00000000       0.00000000       2.36464646       0.00000000       0.00000000       1.75863123
2
Properties=species:S:1:pos:R:3:forces:R:3 energy=-38.6481877183134 pbc="F F F"
Ag       0.00000000       0.00000000       0.00000000       0.00000000       0.00000000      -0.96831191
Ag       0.00000000       0.00000000       2.42424242       0.00000000       0.00000000       0.96831191
2
Properties=species:S:1:pos:R:3:forces:R:3 energy=-38.68707327316166 pbc="F F F"
Ag       0.00000000       0.00000000       0.00000000       0.00000000       0.00000000      -0.36584508
Ag       0.00000000       0.00000000       2.48383838       0.00000000       0.00000000       0.36584508
2
Properties=species:S:1:pos:R:3:forces:R:3 energy=-38.69499018046064 pbc="F F F"
Ag       0.00000000       0.00000000       0.00000000       0.00000000       0.00000000       0.07572455
Ag       0.00000000       0.00000000       2.54343434       0.00000000       0.00000000      -0.07572455
2
Properties=species:S:1:pos:R:3:forces:R:3 energy=-38.68066888381044 pbc="F F F"
Ag       0.00000000       0.00000000       0.00000000       0.00000000       0.00000000       0.38527715
Ag       0.00000000       0.00000000       2.60303030       0.00000000       0.00000000      -0.38527715
2
Properties=species:S:1:pos:R:3:forces:R:3 energy=-38.651128966446045 pbc="F F F"
Ag       0.00000000       0.00000000       0.00000000       0.00000000       0.00000000       0.59096378
Ag       0.00000000       0.00000000       2.66262626       0.00000000       0.00000000      -0.59096378
2
Properties=species:S:1:pos:R:3:forces:R:3 energy=-38.611761018813134 pbc="F F F"
Ag       0.00000000       0.00000000       0.00000000       0.00000000       0.00000000       0.71956390
Ag       0.00000000       0.00000000       2.72222222       0.00000000       0.00000000      -0.71956390
2
Properties=species:S:1:pos:R:3:forces:R:3 energy=-38.566398616660884 pbc="F F F"
Ag       0.00000000       0.00000000       0.00000000       0.00000000       0.00000000       0.79600334
Ag       0.00000000       0.00000000       2.78181818       0.00000000       0.00000000      -0.79600334
2
Properties=species:S:1:pos:R:3:forces:R:3 energy=-38.51748789433723 pbc="F F F"
Ag       0.00000000       0.00000000       0.00000000       0.00000000       0.00000000       0.84173483
Ag       0.00000000       0.00000000       2.84141414       0.00000000       0.00000000      -0.84173483
2
Properties=species:S:1:pos:R:3:forces:R:3 energy=-38.46636066848728 pbc="F F F"
Ag       0.00000000       0.00000000       0.00000000       0.00000000       0.00000000       0.87265003
Ag       0.00000000       0.00000000       2.90101010       0.00000000       0.00000000      -0.87265003
2
Properties=species:S:1:pos:R:3:forces:R:3 energy=-38.413581588815205 pbc="F F F"
Ag       0.00000000       0.00000000       0.00000000       0.00000000       0.00000000       0.89812785
Ag       0.00000000       0.00000000       2.96060606       0.00000000       0.00000000      -0.89812785
2
Properties=species:S:1:pos:R:3:forces:R:3 energy=-38.3593380648572 pbc="F F F"
Ag       0.00000000       0.00000000       0.00000000       0.00000000       0.00000000       0.92213672
Ag       0.00000000       0.00000000       3.02020202       0.00000000       0.00000000      -0.92213672
2
Properties=species:S:1:pos:R:3:forces:R:3 energy=-38.303686808084905 pbc="F F F"
Ag       0.00000000       0.00000000       0.00000000       0.00000000       0.00000000       0.94512522
Ag       0.00000000       0.00000000       3.07979798       0.00000000       0.00000000      -0.94512522
2
Properties=species:S:1:pos:R:3:forces:R:3 energy=-38.2467540195792 pbc="F F F"
Ag       0.00000000       0.00000000       0.00000000       0.00000000       0.00000000       0.96450615
Ag       0.00000000       0.00000000       3.13939394       0.00000000       0.00000000      -0.96450615
2
Properties=species:S:1:pos:R:3:forces:R:3 energy=-38.18889379672992 pbc="F F F"
Ag       0.00000000       0.00000000       0.00000000       0.00000000       0.00000000       0.97555083
Ag       0.00000000       0.00000000       3.19898990       0.00000000       0.00000000      -0.97555083
2
Properties=species:S:1:pos:R:3:forces:R:3 energy=-38.13072150457075 pbc="F F F"
Ag       0.00000000       0.00000000       0.00000000       0.00000000       0.00000000       0.97448927
Ag       0.00000000       0.00000000       3.25858586       0.00000000       0.00000000      -0.97448927
2
Properties=species:S:1:pos:R:3:forces:R:3 energy=-38.07300030869064 pbc="F F F"
Ag       0.00000000       0.00000000       0.00000000       0.00000000       0.00000000       0.96040779
Ag       0.00000000       0.00000000       3.31818182       0.00000000       0.00000000      -0.96040779
2
Properties=species:S:1:pos:R:3:forces:R:3 energy=-38.0164770593916 pbc="F F F"
Ag       0.00000000       0.00000000       0.00000000       0.00000000       0.00000000       0.93485534
Ag       0.00000000       0.00000000       3.37777778       0.00000000       0.00000000      -0.93485534
2
Properties=species:S:1:pos:R:3:forces:R:3 energy=-37.96174419411437 pbc="F F F"
Ag       0.00000000       0.00000000       0.00000000       0.00000000       0.00000000       0.90087670
Ag       0.00000000       0.00000000       3.43737374       0.00000000       0.00000000      -0.90087670
2
Properties=species:S:1:pos:R:3:forces:R:3 energy=-37.90918998862221 pbc="F F F"
Ag       0.00000000       0.00000000       0.00000000       0.00000000       0.00000000       0.86224788
Ag       0.00000000       0.00000000       3.49696970       0.00000000       0.00000000      -0.86224788
2
Properties=species:S:1:pos:R:3:forces:R:3 energy=-37.85898283507045 pbc="F F F"
Ag       0.00000000       0.00000000       0.00000000       0.00000000       0.00000000       0.82286376
Ag       0.00000000       0.00000000       3.55656566       0.00000000       0.00000000      -0.82286376
2
Properties=species:S:1:pos:R:3:forces:R:3 energy=-37.811059686401485 pbc="F F F"
Ag       0.00000000       0.00000000       0.00000000       0.00000000       0.00000000       0.78623694
Ag       0.00000000       0.00000000       3.61616162       0.00000000       0.00000000      -0.78623694
2
Properties=species:S:1:pos:R:3:forces:R:3 energy=-37.765162951388305 pbc="F F F"
Ag       0.00000000       0.00000000       0.00000000       0.00000000       0.00000000       0.75506324
Ag       0.00000000       0.00000000       3.67575758       0.00000000       0.00000000      -0.75506324
2
Properties=species:S:1:pos:R:3:forces:R:3 energy=-37.72091834239655 pbc="F F F"
Ag       0.00000000       0.00000000       0.00000000       0.00000000       0.00000000       0.73094207
Ag       0.00000000       0.00000000       3.73535354       0.00000000       0.00000000      -0.73094207
2
Properties=species:S:1:pos:R:3:forces:R:3 energy=-37.67788921090205 pbc="F F F"
Ag       0.00000000       0.00000000       0.00000000       0.00000000       0.00000000       0.71425611
Ag       0.00000000       0.00000000       3.79494949       0.00000000       0.00000000      -0.71425611
2
Properties=species:S:1:pos:R:3:forces:R:3 energy=-37.63565336254287 pbc="F F F"
Ag       0.00000000       0.00000000       0.00000000       0.00000000       0.00000000       0.70426857
Ag       0.00000000       0.00000000       3.85454545       0.00000000       0.00000000      -0.70426857
2
Properties=species:S:1:pos:R:3:forces:R:3 energy=-37.59384532290016 pbc="F F F"
Ag       0.00000000       0.00000000       0.00000000       0.00000000       0.00000000       0.69938380
Ag       0.00000000       0.00000000       3.91414141       0.00000000       0.00000000      -0.69938380
2
Properties=species:S:1:pos:R:3:forces:R:3 energy=-37.55223283418408 pbc="F F F"
Ag       0.00000000       0.00000000       0.00000000       0.00000000       0.00000000       0.69749987
Ag       0.00000000       0.00000000       3.97373737       0.00000000       0.00000000      -0.69749987
2
Properties=species:S:1:pos:R:3:forces:R:3 energy=-37.51069407792399 pbc="F F F"
Ag       0.00000000       0.00000000       0.00000000       0.00000000       0.00000000       0.69637960
Ag       0.00000000       0.00000000       4.03333333       0.00000000       0.00000000      -0.69637960
2
Properties=species:S:1:pos:R:3:forces:R:3 energy=-37.4692559058884 pbc="F F F"
Ag       0.00000000       0.00000000       0.00000000       0.00000000       0.00000000       0.69393611
Ag       0.00000000       0.00000000       4.09292929       0.00000000       0.00000000      -0.69393611
2
Properties=species:S:1:pos:R:3:forces:R:3 energy=-37.42804428703436 pbc="F F F"
Ag       0.00000000       0.00000000       0.00000000       0.00000000       0.00000000       0.68841588
Ag       0.00000000       0.00000000       4.15252525       0.00000000       0.00000000      -0.68841588
2
Properties=species:S:1:pos:R:3:forces:R:3 energy=-37.387288168138156 pbc="F F F"
Ag       0.00000000       0.00000000       0.00000000       0.00000000       0.00000000       0.67848051
Ag       0.00000000       0.00000000       4.21212121       0.00000000       0.00000000      -0.67848051
2
Properties=species:S:1:pos:R:3:forces:R:3 energy=-37.34728134899742 pbc="F F F"
Ag       0.00000000       0.00000000       0.00000000       0.00000000       0.00000000       0.66319704
Ag       0.00000000       0.00000000       4.27171717       0.00000000       0.00000000      -0.66319704
2
Properties=species:S:1:pos:R:3:forces:R:3 energy=-37.30835961642227 pbc="F F F"
Ag       0.00000000       0.00000000       0.00000000       0.00000000       0.00000000       0.64202046
Ag       0.00000000       0.00000000       4.33131313       0.00000000       0.00000000      -0.64202046
2
Properties=species:S:1:pos:R:3:forces:R:3 energy=-37.27087786238741 pbc="F F F"
Ag       0.00000000       0.00000000       0.00000000       0.00000000       0.00000000       0.61478895
Ag       0.00000000       0.00000000       4.39090909       0.00000000       0.00000000      -0.61478895
2
Properties=species:S:1:pos:R:3:forces:R:3 energy=-37.23519865419544 pbc="F F F"
Ag       0.00000000       0.00000000       0.00000000       0.00000000       0.00000000       0.58172756
Ag       0.00000000       0.00000000       4.45050505       0.00000000       0.00000000      -0.58172756
2
Properties=species:S:1:pos:R:3:forces:R:3 energy=-37.20164647711671 pbc="F F F"
Ag       0.00000000       0.00000000       0.00000000       0.00000000       0.00000000       0.54344136
Ag       0.00000000       0.00000000       4.51010101       0.00000000       0.00000000      -0.54344136
2
Properties=species:S:1:pos:R:3:forces:R:3 energy=-37.17050771934208 pbc="F F F"
Ag       0.00000000       0.00000000       0.00000000       0.00000000       0.00000000       0.50082004
Ag       0.00000000       0.00000000       4.56969697       0.00000000       0.00000000      -0.50082004
2
Properties=species:S:1:pos:R:3:forces:R:3 energy=-37.14201544249626 pbc="F F F"
Ag       0.00000000       0.00000000       0.00000000       0.00000000       0.00000000       0.45494011
Ag       0.00000000       0.00000000       4.62929293       0.00000000       0.00000000      -0.45494011
2
Properties=species:S:1:pos:R:3:forces:R:3 energy=-37.11632647286335 pbc="F F F"
Ag       0.00000000       0.00000000       0.00000000       0.00000000       0.00000000       0.40694430
Ag       0.00000000       0.00000000       4.68888889       0.00000000       0.00000000      -0.40694430
2
Properties=species:S:1:pos:R:3:forces:R:3 energy=-37.09353286765341 pbc="F F F"
Ag       0.00000000       0.00000000       0.00000000       0.00000000       0.00000000       0.35798016
Ag       0.00000000       0.00000000       4.74848485       0.00000000       0.00000000      -0.35798016
2
Properties=species:S:1:pos:R:3:forces:R:3 energy=-37.07365425472163 pbc="F F F"
Ag       0.00000000       0.00000000       0.00000000       0.00000000       0.00000000       0.30924967
Ag       0.00000000       0.00000000       4.80808081       0.00000000       0.00000000      -0.30924967
2
Properties=species:S:1:pos:R:3:forces:R:3 energy=-37.05664167973582 pbc="F F F"
Ag       0.00000000       0.00000000       0.00000000       0.00000000       0.00000000       0.26207876
Ag       0.00000000       0.00000000       4.86767677       0.00000000       0.00000000      -0.26207876
2
Properties=species:S:1:pos:R:3:forces:R:3 energy=-37.04235468869042 pbc="F F F"
Ag       0.00000000       0.00000000       0.00000000       0.00000000       0.00000000       0.21796620
Ag       0.00000000       0.00000000       4.92727273       0.00000000       0.00000000      -0.21796620
2
Properties=species:S:1:pos:R:3:forces:R:3 energy=-37.03056895334127 pbc="F F F"
Ag       0.00000000       0.00000000       0.00000000       0.00000000       0.00000000       0.17851375
Ag       0.00000000       0.00000000       4.98686869       0.00000000       0.00000000      -0.17851375
2
Properties=species:S:1:pos:R:3:forces:R:3 energy=-37.02095720563886 pbc="F F F"
Ag       0.00000000       0.00000000       0.00000000       0.00000000       0.00000000       0.14518130
Ag       0.00000000       0.00000000       5.04646465       0.00000000       0.00000000      -0.14518130
2
Properties=species:S:1:pos:R:3:forces:R:3 energy=-37.01312353515761 pbc="F F F"
Ag       0.00000000       0.00000000       0.00000000       0.00000000       0.00000000       0.11888480
Ag       0.00000000       0.00000000       5.10606061       0.00000000       0.00000000      -0.11888480
2
Properties=species:S:1:pos:R:3:forces:R:3 energy=-37.0066453626452 pbc="F F F"
Ag       0.00000000       0.00000000       0.00000000       0.00000000       0.00000000       0.09953520
Ag       0.00000000       0.00000000       5.16565657       0.00000000       0.00000000      -0.09953520
2
Properties=species:S:1:pos:R:3:forces:R:3 energy=-37.00114971575288 pbc="F F F"
Ag       0.00000000       0.00000000       0.00000000       0.00000000       0.00000000       0.08562221
Ag       0.00000000       0.00000000       5.22525253       0.00000000       0.00000000      -0.08562221
2
Properties=species:S:1:pos:R:3:forces:R:3 energy=-36.996393325798685 pbc="F F F"
Ag       0.00000000       0.00000000       0.00000000       0.00000000       0.00000000       0.07416703
Ag       0.00000000       0.00000000       5.28484848       0.00000000       0.00000000      -0.07416703
2
Properties=species:S:1:pos:R:3:forces:R:3 energy=-36.99232746257383 pbc="F F F"
Ag       0.00000000       0.00000000       0.00000000       0.00000000       0.00000000       0.06200892
Ag       0.00000000       0.00000000       5.34444444       0.00000000       0.00000000      -0.06200892
2
Properties=species:S:1:pos:R:3:forces:R:3 energy=-36.98900256374325 pbc="F F F"
Ag       0.00000000       0.00000000       0.00000000       0.00000000       0.00000000       0.04998370
Ag       0.00000000       0.00000000       5.40404040       0.00000000       0.00000000      -0.04998370
2
Properties=species:S:1:pos:R:3:forces:R:3 energy=-36.98620582514208 pbc="F F F"
Ag       0.00000000       0.00000000       0.00000000       0.00000000       0.00000000       0.04594444
Ag       0.00000000       0.00000000       5.46363636       0.00000000       0.00000000      -0.04594444
2
Properties=species:S:1:pos:R:3:forces:R:3 energy=-36.98331622960832 pbc="F F F"
Ag       0.00000000       0.00000000       0.00000000       0.00000000       0.00000000       0.05182400
Ag       0.00000000       0.00000000       5.52323232       0.00000000       0.00000000      -0.05182400
2
Properties=species:S:1:pos:R:3:forces:R:3 energy=-36.98011708225213 pbc="F F F"
Ag       0.00000000       0.00000000       0.00000000       0.00000000       0.00000000       0.05377726
Ag       0.00000000       0.00000000       5.58282828       0.00000000       0.00000000      -0.05377726
2
Properties=species:S:1:pos:R:3:forces:R:3 energy=-36.97707445405384 pbc="F F F"
Ag       0.00000000       0.00000000       0.00000000       0.00000000       0.00000000       0.04790940
Ag       0.00000000       0.00000000       5.64242424       0.00000000       0.00000000      -0.04790940
2
Properties=species:S:1:pos:R:3:forces:R:3 energy=-36.974307231025314 pbc="F F F"
Ag       0.00000000       0.00000000       0.00000000       0.00000000       0.00000000       0.04695439
Ag       0.00000000       0.00000000       5.70202020       0.00000000       0.00000000      -0.04695439
2
Properties=species:S:1:pos:R:3:forces:R:3 energy=-36.97123232875321 pbc="F F F"
Ag       0.00000000       0.00000000       0.00000000       0.00000000       0.00000000       0.05717511
Ag       0.00000000       0.00000000       5.76161616       0.00000000       0.00000000      -0.05717511
2
Properties=species:S:1:pos:R:3:forces:R:3 energy=-36.96766332798341 pbc="F F F"
Ag       0.00000000       0.00000000       0.00000000       0.00000000       0.00000000       0.05900707
Ag       0.00000000       0.00000000       5.82121212       0.00000000       0.00000000      -0.05900707
2
Properties=species:S:1:pos:R:3:forces:R:3 energy=-36.964668783089614 pbc="F F F"
Ag       0.00000000       0.00000000       0.00000000       0.00000000       0.00000000       0.03903507
Ag       0.00000000       0.00000000       5.88080808       0.00000000       0.00000000      -0.03903507
2
Properties=species:S:1:pos:R:3:forces:R:3 energy=-36.963095925916086 pbc="F F F"
Ag       0.00000000       0.00000000       0.00000000       0.00000000       0.00000000       0.01431952
Ag       0.00000000       0.00000000       5.94040404       0.00000000       0.00000000      -0.01431952
2
Properties=species:S:1:pos:R:3:forces:R:3 energy=-36.96265896263458 pbc="F F F"
Ag       0.00000000       0.00000000       0.00000000       0.00000000       0.00000000       0.00388156
Ag       0.00000000       0.00000000       6.00000000       0.00000000       0.00000000      -0.00388156
