2
Properties=species:S:1:pos:R:3:forces:R:3 energy=7821.381963392339 pbc="F F F"
Ag       0.00000000       0.00000000       0.00000000       0.00000000       0.00000000 -131479.17187500
Ag       0.00000000       0.00000000       0.18000000       0.00000000       0.00000000  131479.17187500
2
Properties=species:S:1:pos:R:3:forces:R:3 energy=3141.331670423589 pbc="F F F"
Ag       0.00000000       0.00000000       0.00000000       0.00000000       0.00000000  -45448.78125000
Ag       0.00000000       0.00000000       0.23878788       0.00000000       0.00000000   45448.78125000
2
Properties=species:S:1:pos:R:3:forces:R:3 energy=1397.9116264782763 pbc="F F F"
Ag       0.00000000       0.00000000       0.00000000       0.00000000       0.00000000  -18457.64453125
Ag       0.00000000       0.00000000       0.29757576       0.00000000       0.00000000   18457.64453125
2
Properties=species:S:1:pos:R:3:forces:R:3 energy=658.1793266743808 pbc="F F F"
Ag       0.00000000       0.00000000       0.00000000       0.00000000       0.00000000   -8211.70019531
Ag       0.00000000       0.00000000       0.35636364       0.00000000       0.00000000    8211.70019531
2
Properties=species:S:1:pos:R:3:forces:R:3 energy=322.0448357083759 pbc="F F F"
Ag       0.00000000       0.00000000       0.00000000       0.00000000       0.00000000   -3797.53735352
Ag       0.00000000       0.00000000       0.41515152       0.00000000       0.00000000    3797.53735352
2
Properties=species:S:1:pos:R:3:forces:R:3 energy=167.2291618818348 pbc="F F F"
Ag       0.00000000       0.00000000       0.00000000       0.00000000       0.00000000   -1714.89147949
Ag       0.00000000       0.00000000       0.47393939       0.00000000       0.00000000    1714.89147949
2
Properties=species:S:1:pos:R:3:forces:R:3 energy=100.37932362658277 pbc="F F F"
Ag       0.00000000       0.00000000       0.00000000       0.00000000       0.00000000    -677.47674561
Ag       0.00000000       0.00000000       0.53272727       0.00000000       0.00000000     677.47674561
2
Properties=species:S:1:pos:R:3:forces:R:3 energy=77.37749257664701 pbc="F F F"
Ag       0.00000000       0.00000000       0.00000000       0.00000000       0.00000000    -169.58447266
Ag       0.00000000       0.00000000       0.59151515       0.00000000       0.00000000     169.58447266
2
Properties=species:S:1:pos:R:3:forces:R:3 energy=77.23319021481859 pbc="F F F"
Ag       0.00000000       0.00000000       0.00000000       0.00000000       0.00000000     145.91830444
Ag       0.00000000       0.00000000       0.65030303       0.00000000       0.00000000    -145.91830444
2
Properties=species:S:1:pos:R:3:forces:R:3 energy=82.57324759895285 pbc="F F F"
Ag       0.00000000       0.00000000       0.00000000       0.00000000       0.00000000      48.62823105
Ag       0.00000000       0.00000000       0.70909091       0.00000000       0.00000000     -48.62823105
2
Properties=species:S:1:pos:R:3:forces:R:3 energy=80.70938653239149 pbc="F F F"
Ag       0.00000000       0.00000000       0.00000000       0.00000000       0.00000000    -340.17575073
Ag       0.00000000       0.00000000       0.76787879       0.00000000       0.00000000     340.17575073
2
Properties=species:S:1:pos:R:3:forces:R:3 energy=61.30542155981227 pbc="F F F"
Ag       0.00000000       0.00000000       0.00000000       0.00000000       0.00000000    -290.01953125
Ag       0.00000000       0.00000000       0.82666667       0.00000000       0.00000000     290.01953125
2
Properties=species:S:1:pos:R:3:forces:R:3 energy=46.615068201103625 pbc="F F F"
Ag       0.00000000       0.00000000       0.00000000       0.00000000       0.00000000    -219.51507568
Ag       0.00000000       0.00000000       0.88545455       0.00000000       0.00000000     219.51507568
2
Properties=species:S:1:pos:R:3:forces:R:3 energy=35.18217640450174 pbc="F F F"
Ag       0.00000000       0.00000000       0.00000000       0.00000000       0.00000000    -170.19602966
Ag       0.00000000       0.00000000       0.94424242       0.00000000       0.00000000     170.19602966
2
Properties=species:S:1:pos:R:3:forces:R:3 energy=25.990053058732023 pbc="F F F"
Ag       0.00000000       0.00000000       0.00000000       0.00000000       0.00000000    -148.27478027
Ag       0.00000000       0.00000000       1.00303030       0.00000000       0.00000000     148.27478027
2
Properties=species:S:1:pos:R:3:forces:R:3 energy=17.434606523467142 pbc="F F F"
Ag       0.00000000       0.00000000       0.00000000       0.00000000       0.00000000    -143.30831909
Ag       0.00000000       0.00000000       1.06181818       0.00000000       0.00000000     143.30831909
2
Properties=species:S:1:pos:R:3:forces:R:3 energy=9.143041701646178 pbc="F F F"
Ag       0.00000000       0.00000000       0.00000000       0.00000000       0.00000000    -138.47996521
Ag       0.00000000       0.00000000       1.12060606       0.00000000       0.00000000     138.47996521
2
Properties=species:S:1:pos:R:3:forces:R:3 energy=1.229608782710246 pbc="F F F"
Ag       0.00000000       0.00000000       0.00000000       0.00000000       0.00000000    -129.66954041
Ag       0.00000000       0.00000000       1.17939394       0.00000000       0.00000000     129.66954041
2
Properties=species:S:1:pos:R:3:forces:R:3 energy=-5.936349422257974 pbc="F F F"
Ag       0.00000000       0.00000000       0.00000000       0.00000000       0.00000000    -112.53803253
Ag       0.00000000       0.00000000       1.23818182       0.00000000       0.00000000     112.53803253
2
Properties=species:S:1:pos:R:3:forces:R:3 energy=-11.854207290235633 pbc="F F F"
Ag       0.00000000       0.00000000       0.00000000       0.00000000       0.00000000     -88.24265289
Ag       0.00000000       0.00000000       1.29696970       0.00000000       0.00000000      88.24265289
2
Properties=species:S:1:pos:R:3:forces:R:3 energy=-16.365525176280748 pbc="F F F"
Ag       0.00000000       0.00000000       0.00000000       0.00000000       0.00000000     -66.52296448
Ag       0.00000000       0.00000000       1.35575758       0.00000000       0.00000000      66.52296448
2
Properties=species:S:1:pos:R:3:forces:R:3 energy=-19.846842294900895 pbc="F F F"
Ag       0.00000000       0.00000000       0.00000000       0.00000000       0.00000000     -53.16878128
Ag       0.00000000       0.00000000       1.41454545       0.00000000       0.00000000      53.16878128
2
Properties=species:S:1:pos:R:3:forces:R:3 energy=-22.72257231445505 pbc="F F F"
Ag       0.00000000       0.00000000       0.00000000       0.00000000       0.00000000     -45.26134491
Ag       0.00000000       0.00000000       1.47333333       0.00000000       0.00000000      45.26134491
2
Properties=species:S:1:pos:R:3:forces:R:3 energy=-25.21413550481418 pbc="F F F"
Ag       0.00000000       0.00000000       0.00000000       0.00000000       0.00000000     -39.73297501
Ag       0.00000000       0.00000000       1.53212121       0.00000000       0.00000000      39.73297501
2
Properties=species:S:1:pos:R:3:forces:R:3 energy=-27.410147263659862 pbc="F F F"
Ag       0.00000000       0.00000000       0.00000000       0.00000000       0.00000000     -35.05414200
Ag       0.00000000       0.00000000       1.59090909       0.00000000       0.00000000      35.05414200
2
Properties=species:S:1:pos:R:3:forces:R:3 energy=-29.34248127023636 pbc="F F F"
Ag       0.00000000       0.00000000       0.00000000       0.00000000       0.00000000     -30.73854637
Ag       0.00000000       0.00000000       1.64969697       0.00000000       0.00000000      30.73854637
2
Properties=species:S:1:pos:R:3:forces:R:3 energy=-31.030905263599387 pbc="F F F"
Ag       0.00000000       0.00000000       0.00000000       0.00000000       0.00000000     -26.76083755
Ag       0.00000000       0.00000000       1.70848485       0.00000000       0.00000000      26.76083755
2
Properties=species:S:1:pos:R:3:forces:R:3 energy=-32.49538343179428 pbc="F F F"
Ag       0.00000000       0.00000000       0.00000000       0.00000000       0.00000000     -23.11089516
Ag       0.00000000       0.00000000       1.76727273       0.00000000       0.00000000      23.11089516
2
Properties=species:S:1:pos:R:3:forces:R:3 energy=-33.75339278500093 pbc="F F F"
Ag       0.00000000       0.00000000       0.00000000       0.00000000       0.00000000     -19.72972488
Ag       0.00000000       0.00000000       1.82606061       0.00000000       0.00000000      19.72972488
2
Properties=species:S:1:pos:R:3:forces:R:3 energy=-34.82039234983419 pbc="F F F"
Ag       0.00000000       0.00000000       0.00000000       0.00000000       0.00000000     -16.61946487
Ag       0.00000000       0.00000000       1.88484848       0.00000000       0.00000000      16.61946487
2
Properties=species:S:1:pos:R:3:forces:R:3 energy=-35.713704638858815 pbc="F F F"
Ag       0.00000000       0.00000000       0.00000000       0.00000000       0.00000000     -13.82699108
Ag       0.00000000       0.00000000       1.94363636       0.00000000       0.00000000      13.82699108
2
Properties=species:S:1:pos:R:3:forces:R:3 energy=-36.452586212985416 pbc="F F F"
Ag       0.00000000       0.00000000       0.00000000       0.00000000       0.00000000     -11.36322594
Ag       0.00000000       0.00000000       2.00242424       0.00000000       0.00000000      11.36322594
2
Properties=species:S:1:pos:R:3:forces:R:3 energy=-37.055553597694185 pbc="F F F"
Ag       0.00000000       0.00000000       0.00000000       0.00000000       0.00000000      -9.19606304
Ag       0.00000000       0.00000000       2.06121212       0.00000000       0.00000000       9.19606304
2
Properties=species:S:1:pos:R:3:forces:R:3 energy=-37.5388573993769 pbc="F F F"
Ag       0.00000000       0.00000000       0.00000000       0.00000000       0.00000000      -7.28652096
Ag       0.00000000       0.00000000       2.12000000       0.00000000       0.00000000       7.28652096
2
Properties=species:S:1:pos:R:3:forces:R:3 energy=-37.91682564234606 pbc="F F F"
Ag       0.00000000       0.00000000       0.00000000       0.00000000       0.00000000      -5.60979557
Ag       0.00000000       0.00000000       2.17878788       0.00000000       0.00000000       5.60979557
2
Properties=species:S:1:pos:R:3:forces:R:3 energy=-38.20279458031023 pbc="F F F"
Ag       0.00000000       0.00000000       0.00000000       0.00000000       0.00000000      -4.15580606
Ag       0.00000000       0.00000000       2.23757576       0.00000000       0.00000000       4.15580606
2
Properties=species:S:1:pos:R:3:forces:R:3 energy=-38.409753392883275 pbc="F F F"
Ag       0.00000000       0.00000000       0.00000000       0.00000000       0.00000000      -2.92160797
Ag       0.00000000       0.00000000       2.29636364       0.00000000       0.00000000       2.92160797
2
Properties=species:S:1:pos:R:3:forces:R:3 energy=-38.55053878978978 pbc="F F F"
Ag       0.00000000       0.00000000       0.00000000       0.00000000       0.00000000      -1.90340567
Ag       0.00000000       0.00000000       2.35515152       0.00000000       0.00000000       1.90340567
2
Properties=species:S:1:pos:R:3:forces:R:3 energy=-38.637583293906594 pbc="F F F"
Ag       0.00000000       0.00000000       0.00000000       0.00000000       0.00000000      -1.09082222
Ag       0.00000000       0.00000000       2.41393939       0.00000000       0.00000000       1.09082222
2
Properties=species:S:1:pos:R:3:forces:R:3 energy=-38.68246141424934 pbc="F F F"
Ag       0.00000000       0.00000000       0.00000000       0.00000000       0.00000000      -0.46510899
Ag       0.00000000       0.00000000       2.47272727       0.00000000       0.00000000       0.46510899
2
Properties=species:S:1:pos:R:3:forces:R:3 energy=-38.69543970651613 pbc="F F F"
Ag       0.00000000       0.00000000       0.00000000       0.00000000       0.00000000      -0.00110378
Ag       0.00000000       0.00000000       2.53151515       0.00000000       0.00000000       0.00110378
2
Properties=species:S:1:pos:R:3:forces:R:3 energy=-38.68521776331567 pbc="F F F"
Ag       0.00000000       0.00000000       0.00000000       0.00000000       0.00000000       0.32882819
Ag       0.00000000       0.00000000       2.59030303       0.00000000       0.00000000      -0.32882819
2
Properties=species:S:1:pos:R:3:forces:R:3 energy=-38.65886790602613 pbc="F F F"
Ag       0.00000000       0.00000000       0.00000000       0.00000000       0.00000000       0.55195260
Ag       0.00000000       0.00000000       2.64909091       0.00000000       0.00000000      -0.55195260
2
Properties=species:S:1:pos:R:3:forces:R:3 energy=-38.62190527961768 pbc="F F F"
Ag       0.00000000       0.00000000       0.00000000       0.00000000       0.00000000       0.69427830
Ag       0.00000000       0.00000000       2.70787879       0.00000000       0.00000000      -0.69427830
2
Properties=species:S:1:pos:R:3:forces:R:3 energy=-38.578340168835894 pbc="F F F"
Ag       0.00000000       0.00000000       0.00000000       0.00000000       0.00000000       0.78024924
Ag       0.00000000       0.00000000       2.76666667       0.00000000       0.00000000      -0.78024924
2
Properties=species:S:1:pos:R:3:forces:R:3 energy=-38.530842876145314 pbc="F F F"
Ag       0.00000000       0.00000000       0.00000000       0.00000000       0.00000000       0.83148283
Ag       0.00000000       0.00000000       2.82545455       0.00000000       0.00000000      -0.83148283
2
Properties=species:S:1:pos:R:3:forces:R:3 energy=-38.48092525626345 pbc="F F F"
Ag       0.00000000       0.00000000       0.00000000       0.00000000       0.00000000       0.86478871
Ag       0.00000000       0.00000000       2.88424242       0.00000000       0.00000000      -0.86478871
2
Properties=species:S:1:pos:R:3:forces:R:3 energy=-38.42929999145683 pbc="F F F"
Ag       0.00000000       0.00000000       0.00000000       0.00000000       0.00000000       0.89086342
Ag       0.00000000       0.00000000       2.94303030       0.00000000       0.00000000      -0.89086342
2
Properties=species:S:1:pos:R:3:forces:R:3 energy=-38.37622292264322 pbc="F F F"
Ag       0.00000000       0.00000000       0.00000000       0.00000000       0.00000000       0.91480201
Ag       0.00000000       0.00000000       3.00181818       0.00000000       0.00000000      -0.91480201
2
Properties=species:S:1:pos:R:3:forces:R:3 energy=-38.321759409724685 pbc="F F F"
Ag       0.00000000       0.00000000       0.00000000       0.00000000       0.00000000       0.93792802
Ag       0.00000000       0.00000000       3.06060606       0.00000000       0.00000000      -0.93792802
2
Properties=species:S:1:pos:R:3:forces:R:3 energy=-38.26598903124291 pbc="F F F"
Ag       0.00000000       0.00000000       0.00000000       0.00000000       0.00000000       0.95868397
Ag       0.00000000       0.00000000       3.11939394       0.00000000       0.00000000      -0.95868397
2
Properties=species:S:1:pos:R:3:forces:R:3 energy=-38.20916564315662 pbc="F F F"
Ag       0.00000000       0.00000000       0.00000000       0.00000000       0.00000000       0.97293204
Ag       0.00000000       0.00000000       3.17818182       0.00000000       0.00000000      -0.97293204
2
Properties=species:S:1:pos:R:3:forces:R:3 energy=-38.15181007879185 pbc="F F F"
Ag       0.00000000       0.00000000       0.00000000       0.00000000       0.00000000       0.97639400
Ag       0.00000000       0.00000000       3.23696970       0.00000000       0.00000000      -0.97639400
2
Properties=species:S:1:pos:R:3:forces:R:3 energy=-38.09461610586511 pbc="F F F"
Ag       0.00000000       0.00000000       0.00000000       0.00000000       0.00000000       0.96717811
Ag       0.00000000       0.00000000       3.29575758       0.00000000       0.00000000      -0.96717811
2
Properties=species:S:1:pos:R:3:forces:R:3 energy=-38.03832718510873 pbc="F F F"
Ag       0.00000000       0.00000000       0.00000000       0.00000000       0.00000000       0.94600964
Ag       0.00000000       0.00000000       3.35454545       0.00000000       0.00000000      -0.94600964
2
Properties=species:S:1:pos:R:3:forces:R:3 energy=-37.983577089349076 pbc="F F F"
Ag       0.00000000       0.00000000       0.00000000       0.00000000       0.00000000       0.91536462
Ag       0.00000000       0.00000000       3.41333333       0.00000000       0.00000000      -0.91536462
2
Properties=species:S:1:pos:R:3:forces:R:3 energy=-37.93082277568384 pbc="F F F"
Ag       0.00000000       0.00000000       0.00000000       0.00000000       0.00000000       0.87866586
Ag       0.00000000       0.00000000       3.47212121       0.00000000       0.00000000      -0.87866586
2
Properties=species:S:1:pos:R:3:forces:R:3 energy=-37.88031177333402 pbc="F F F"
Ag       0.00000000       0.00000000       0.00000000       0.00000000       0.00000000       0.83967310
Ag       0.00000000       0.00000000       3.53090909       0.00000000       0.00000000      -0.83967310
2
Properties=species:S:1:pos:R:3:forces:R:3 energy=-37.83207060744816 pbc="F F F"
Ag       0.00000000       0.00000000       0.00000000       0.00000000       0.00000000       0.80196559
Ag       0.00000000       0.00000000       3.58969697       0.00000000       0.00000000      -0.80196559
2
Properties=species:S:1:pos:R:3:forces:R:3 energy=-37.78593437203003 pbc="F F F"
Ag       0.00000000       0.00000000       0.00000000       0.00000000       0.00000000       0.76852226
Ag       0.00000000       0.00000000       3.64848485       0.00000000       0.00000000      -0.76852226
2
Properties=species:S:1:pos:R:3:forces:R:3 energy=-37.74158669999295 pbc="F F F"
Ag       0.00000000       0.00000000       0.00000000       0.00000000       0.00000000       0.74137706
Ag       0.00000000       0.00000000       3.70727273       0.00000000       0.00000000      -0.74137706
2
Properties=species:S:1:pos:R:3:forces:R:3 energy=-37.698625704328045 pbc="F F F"
Ag       0.00000000       0.00000000       0.00000000       0.00000000       0.00000000       0.72143888
Ag       0.00000000       0.00000000       3.76606061       0.00000000       0.00000000      -0.72143888
2
Properties=species:S:1:pos:R:3:forces:R:3 energy=-37.65662564682491 pbc="F F F"
Ag       0.00000000       0.00000000       0.00000000       0.00000000       0.00000000       0.70849091
Ag       0.00000000       0.00000000       3.82484848       0.00000000       0.00000000      -0.70849091
2
Properties=species:S:1:pos:R:3:forces:R:3 energy=-37.61520977686746 pbc="F F F"
Ag       0.00000000       0.00000000       0.00000000       0.00000000       0.00000000       0.70136839
Ag       0.00000000       0.00000000       3.88363636       0.00000000       0.00000000      -0.70136839
2
Properties=species:S:1:pos:R:3:forces:R:3 energy=-37.57408110877351 pbc="F F F"
Ag       0.00000000       0.00000000       0.00000000       0.00000000       0.00000000       0.69825321
Ag       0.00000000       0.00000000       3.94242424       0.00000000       0.00000000      -0.69825321
2
Properties=species:S:1:pos:R:3:forces:R:3 energy=-37.53307592259112 pbc="F F F"
Ag       0.00000000       0.00000000       0.00000000       0.00000000       0.00000000       0.69702160
Ag       0.00000000       0.00000000       4.00121212       0.00000000       0.00000000      -0.69702160
2
Properties=species:S:1:pos:R:3:forces:R:3 energy=-37.49213337877704 pbc="F F F"
Ag       0.00000000       0.00000000       0.00000000       0.00000000       0.00000000       0.69556344
Ag       0.00000000       0.00000000       4.06000000       0.00000000       0.00000000      -0.69556344
2
Properties=species:S:1:pos:R:3:forces:R:3 energy=-37.45133369130395 pbc="F F F"
Ag       0.00000000       0.00000000       0.00000000       0.00000000       0.00000000       0.69200587
Ag       0.00000000       0.00000000       4.11878788       0.00000000       0.00000000      -0.69200587
2
Properties=species:S:1:pos:R:3:forces:R:3 energy=-37.41084096263832 pbc="F F F"
Ag       0.00000000       0.00000000       0.00000000       0.00000000       0.00000000       0.68483973
Ag       0.00000000       0.00000000       4.17757576       0.00000000       0.00000000      -0.68483973
2
Properties=species:S:1:pos:R:3:forces:R:3 energy=-37.37090702694806 pbc="F F F"
Ag       0.00000000       0.00000000       0.00000000       0.00000000       0.00000000       0.67294896
Ag       0.00000000       0.00000000       4.23636364       0.00000000       0.00000000      -0.67294896
2
Properties=species:S:1:pos:R:3:forces:R:3 energy=-37.331825682446905 pbc="F F F"
Ag       0.00000000       0.00000000       0.00000000       0.00000000       0.00000000       0.65558898
Ag       0.00000000       0.00000000       4.29515152       0.00000000       0.00000000      -0.65558898
2
Properties=species:S:1:pos:R:3:forces:R:3 energy=-37.293940354842974 pbc="F F F"
Ag       0.00000000       0.00000000       0.00000000       0.00000000       0.00000000       0.63239056
Ag       0.00000000       0.00000000       4.35393939       0.00000000       0.00000000      -0.63239056
2
Properties=species:S:1:pos:R:3:forces:R:3 energy=-37.2575906876173 pbc="F F F"
Ag       0.00000000       0.00000000       0.00000000       0.00000000       0.00000000       0.60333627
Ag       0.00000000       0.00000000       4.41272727       0.00000000       0.00000000      -0.60333627
2
Properties=species:S:1:pos:R:3:forces:R:3 energy=-37.223108751877206 pbc="F F F"
Ag       0.00000000       0.00000000       0.00000000       0.00000000       0.00000000       0.56878519
Ag       0.00000000       0.00000000       4.47151515       0.00000000       0.00000000      -0.56878519
2
Properties=species:S:1:pos:R:3:forces:R:3 energy=-37.19080758800925 pbc="F F F"
Ag       0.00000000       0.00000000       0.00000000       0.00000000       0.00000000       0.52942711
Ag       0.00000000       0.00000000       4.53030303       0.00000000       0.00000000      -0.52942711
2
Properties=species:S:1:pos:R:3:forces:R:3 energy=-37.160939274895625 pbc="F F F"
Ag       0.00000000       0.00000000       0.00000000       0.00000000       0.00000000       0.48619202
Ag       0.00000000       0.00000000       4.58909091       0.00000000       0.00000000      -0.48619202
2
Properties=species:S:1:pos:R:3:forces:R:3 energy=-37.13369872402056 pbc="F F F"
Ag       0.00000000       0.00000000       0.00000000       0.00000000       0.00000000       0.44014725
Ag       0.00000000       0.00000000       4.64787879       0.00000000       0.00000000      -0.44014725
2
Properties=species:S:1:pos:R:3:forces:R:3 energy=-37.109219882988036 pbc="F F F"
Ag       0.00000000       0.00000000       0.00000000       0.00000000       0.00000000       0.39238569
Ag       0.00000000       0.00000000       4.70666667       0.00000000       0.00000000      -0.39238569
2
Properties=species:S:1:pos:R:3:forces:R:3 energy=-37.0875757260183 pbc="F F F"
Ag       0.00000000       0.00000000       0.00000000       0.00000000       0.00000000       0.34402701
Ag       0.00000000       0.00000000       4.76545455       0.00000000       0.00000000      -0.34402701
2
Properties=species:S:1:pos:R:3:forces:R:3 energy=-37.06875918679722 pbc="F F F"
Ag       0.00000000       0.00000000       0.00000000       0.00000000       0.00000000       0.29624280
Ag       0.00000000       0.00000000       4.82424242       0.00000000       0.00000000      -0.29624280
2
Properties=species:S:1:pos:R:3:forces:R:3 energy=-37.052706041116146 pbc="F F F"
Ag       0.00000000       0.00000000       0.00000000       0.00000000       0.00000000       0.25036207
Ag       0.00000000       0.00000000       4.88303030       0.00000000       0.00000000      -0.25036207
2
Properties=species:S:1:pos:R:3:forces:R:3 energy=-37.03925674168431 pbc="F F F"
Ag       0.00000000       0.00000000       0.00000000       0.00000000       0.00000000       0.20784685
Ag       0.00000000       0.00000000       4.94181818       0.00000000       0.00000000      -0.20784685
2
Properties=species:S:1:pos:R:3:forces:R:3 energy=-37.0281716887972 pbc="F F F"
Ag       0.00000000       0.00000000       0.00000000       0.00000000       0.00000000       0.17024232
Ag       0.00000000       0.00000000       5.00060606       0.00000000       0.00000000      -0.17024232
2
Properties=species:S:1:pos:R:3:forces:R:3 energy=-37.01911977198959 pbc="F F F"
Ag       0.00000000       0.00000000       0.00000000       0.00000000       0.00000000       0.13885926
Ag       0.00000000       0.00000000       5.05939394       0.00000000       0.00000000      -0.13885926
2
Properties=species:S:1:pos:R:3:forces:R:3 energy=-37.0117088773182 pbc="F F F"
Ag       0.00000000       0.00000000       0.00000000       0.00000000       0.00000000       0.11441197
Ag       0.00000000       0.00000000       5.11818182       0.00000000       0.00000000      -0.11441197
2
Properties=species:S:1:pos:R:3:forces:R:3 energy=-37.005539274116515 pbc="F F F"
Ag       0.00000000       0.00000000       0.00000000       0.00000000       0.00000000       0.09654792
Ag       0.00000000       0.00000000       5.17696970       0.00000000       0.00000000      -0.09654792
2
Properties=species:S:1:pos:R:3:forces:R:3 energy=-37.00026085366876 pbc="F F F"
Ag       0.00000000       0.00000000       0.00000000       0.00000000       0.00000000       0.08352695
Ag       0.00000000       0.00000000       5.23575758       0.00000000       0.00000000      -0.08352695
2
Properties=species:S:1:pos:R:3:forces:R:3 energy=-36.99568370791323 pbc="F F F"
Ag       0.00000000       0.00000000       0.00000000       0.00000000       0.00000000       0.07229503
Ag       0.00000000       0.00000000       5.29454545       0.00000000       0.00000000      -0.07229503
2
Properties=species:S:1:pos:R:3:forces:R:3 energy=-36.99178577863574 pbc="F F F"
Ag       0.00000000       0.00000000       0.00000000       0.00000000       0.00000000       0.06008588
Ag       0.00000000       0.00000000       5.35333333       0.00000000       0.00000000      -0.06008588
2
Properties=species:S:1:pos:R:3:forces:R:3 energy=-36.988606026939216 pbc="F F F"
Ag       0.00000000       0.00000000       0.00000000       0.00000000       0.00000000       0.04875674
Ag       0.00000000       0.00000000       5.41212121       0.00000000       0.00000000      -0.04875674
2
Properties=species:S:1:pos:R:3:forces:R:3 energy=-36.9858705667772 pbc="F F F"
Ag       0.00000000       0.00000000       0.00000000       0.00000000       0.00000000       0.04630486
Ag       0.00000000       0.00000000       5.47090909       0.00000000       0.00000000      -0.04630486
2
Properties=species:S:1:pos:R:3:forces:R:3 energy=-36.98297742517166 pbc="F F F"
Ag       0.00000000       0.00000000       0.00000000       0.00000000       0.00000000       0.05249230
Ag       0.00000000       0.00000000       5.52969697       0.00000000       0.00000000      -0.05249230
2
Properties=species:S:1:pos:R:3:forces:R:3 energy=-36.979816679158404 pbc="F F F"
Ag       0.00000000       0.00000000       0.00000000       0.00000000       0.00000000       0.05343176
Ag       0.00000000       0.00000000       5.58848485       0.00000000       0.00000000      -0.05343176
2
Properties=species:S:1:pos:R:3:forces:R:3 energy=-36.97684292711559 pbc="F F F"
Ag       0.00000000       0.00000000       0.00000000       0.00000000       0.00000000       0.04743551
Ag       0.00000000       0.00000000       5.64727273       0.00000000       0.00000000      -0.04743551
2
Properties=species:S:1:pos:R:3:forces:R:3 energy=-36.974117797374156 pbc="F F F"
Ag       0.00000000       0.00000000       0.00000000       0.00000000       0.00000000       0.04735205
Ag       0.00000000       0.00000000       5.70606061       0.00000000       0.00000000      -0.04735205
2
Properties=species:S:1:pos:R:3:forces:R:3 energy=-36.971039109463725 pbc="F F F"
Ag       0.00000000       0.00000000       0.00000000       0.00000000       0.00000000       0.05782185
Ag       0.00000000       0.00000000       5.76484848       0.00000000       0.00000000      -0.05782185
2
Properties=species:S:1:pos:R:3:forces:R:3 energy=-36.96751579097095 pbc="F F F"
Ag       0.00000000       0.00000000       0.00000000       0.00000000       0.00000000       0.05863000
Ag       0.00000000       0.00000000       5.82363636       0.00000000       0.00000000      -0.05863000
2
Properties=species:S:1:pos:R:3:forces:R:3 energy=-36.96459729506479 pbc="F F F"
Ag       0.00000000       0.00000000       0.00000000       0.00000000       0.00000000       0.03833673
Ag       0.00000000       0.00000000       5.88242424       0.00000000       0.00000000      -0.03833673
2
Properties=species:S:1:pos:R:3:forces:R:3 energy=-36.96308888122816 pbc="F F F"
Ag       0.00000000       0.00000000       0.00000000       0.00000000       0.00000000       0.01398966
Ag       0.00000000       0.00000000       5.94121212       0.00000000       0.00000000      -0.01398966
2
Properties=species:S:1:pos:R:3:forces:R:3 energy=-36.96265896184262 pbc="F F F"
Ag       0.00000000       0.00000000       0.00000000       0.00000000       0.00000000       0.00388156
Ag       0.00000000       0.00000000       6.00000000       0.00000000       0.00000000      -0.00388156
