2
Properties=species:S:1:pos:R:3:forces:R:3 energy=4712.343773181291 pbc="F F F"
Al       0.00000000       0.00000000       0.00000000       0.00000000       0.00000000  -97284.39062500
Al       0.00000000       0.00000000       0.10000000       0.00000000       0.00000000   97284.39062500
2
Properties=species:S:1:pos:R:3:forces:R:3 energy=1661.6535876344158 pbc="F F F"
Al       0.00000000       0.00000000       0.00000000       0.00000000       0.00000000  -24559.46875000
Al       0.00000000       0.00000000       0.15959596       0.00000000       0.00000000   24559.46875000
2
Properties=species:S:1:pos:R:3:forces:R:3 energy=818.4434435914469 pbc="F F F"
Al       0.00000000       0.00000000       0.00000000       0.00000000       0.00000000   -6927.98242188
Al       0.00000000       0.00000000       0.21919192       0.00000000       0.00000000    6927.98242188
2
Properties=species:S:1:pos:R:3:forces:R:3 energy=642.7359850953532 pbc="F F F"
Al       0.00000000       0.00000000       0.00000000       0.00000000       0.00000000     188.72254944
Al       0.00000000       0.00000000       0.27878788       0.00000000       0.00000000    -188.72254944
2
Properties=species:S:1:pos:R:3:forces:R:3 energy=763.5168688859995 pbc="F F F"
Al       0.00000000       0.00000000       0.00000000       0.00000000       0.00000000    3212.49072266
Al       0.00000000       0.00000000       0.33838384       0.00000000       0.00000000   -3212.49072266
2
Properties=species:S:1:pos:R:3:forces:R:3 energy=720.1944201555308 pbc="F F F"
Al       0.00000000       0.00000000       0.00000000       0.00000000       0.00000000   -3507.46386719
Al       0.00000000       0.00000000       0.39797980       0.00000000       0.00000000    3507.46386719
2
Properties=species:S:1:pos:R:3:forces:R:3 energy=413.34667235438036 pbc="F F F"
Al       0.00000000       0.00000000       0.00000000       0.00000000       0.00000000   -5311.77539062
Al       0.00000000       0.00000000       0.45757576       0.00000000       0.00000000    5311.77539062
2
Properties=species:S:1:pos:R:3:forces:R:3 energy=294.8048327563549 pbc="F F F"
Al       0.00000000       0.00000000       0.00000000       0.00000000       0.00000000    4319.81347656
Al       0.00000000       0.00000000       0.51717172       0.00000000       0.00000000   -4319.81347656
2
Properties=species:S:1:pos:R:3:forces:R:3 energy=648.5074694814406 pbc="F F F"
Al       0.00000000       0.00000000       0.00000000       0.00000000       0.00000000   -5199.77343750
Al       0.00000000       0.00000000       0.57676768       0.00000000       0.00000000    5199.77343750
2
Properties=species:S:1:pos:R:3:forces:R:3 energy=57.052654576887534 pbc="F F F"
Al       0.00000000       0.00000000       0.00000000       0.00000000       0.00000000   -2436.67285156
Al       0.00000000       0.00000000       0.63636364       0.00000000       0.00000000    2436.67285156
2
Properties=species:S:1:pos:R:3:forces:R:3 energy=69.69105562263688 pbc="F F F"
Al       0.00000000       0.00000000       0.00000000       0.00000000       0.00000000     319.50741577
Al       0.00000000       0.00000000       0.69595960       0.00000000       0.00000000    -319.50741577
2
Properties=species:S:1:pos:R:3:forces:R:3 energy=98.52107273307148 pbc="F F F"
Al       0.00000000       0.00000000       0.00000000       0.00000000       0.00000000     108.16465759
Al       0.00000000       0.00000000       0.75555556       0.00000000       0.00000000    -108.16465759
2
Properties=species:S:1:pos:R:3:forces:R:3 energy=74.61744727488453 pbc="F F F"
Al       0.00000000       0.00000000       0.00000000       0.00000000       0.00000000    -672.65167236
Al       0.00000000       0.00000000       0.81515152       0.00000000       0.00000000     672.65167236
2
Properties=species:S:1:pos:R:3:forces:R:3 energy=40.61338466506224 pbc="F F F"
Al       0.00000000       0.00000000       0.00000000       0.00000000       0.00000000    -349.02319336
Al       0.00000000       0.00000000       0.87474747       0.00000000       0.00000000     349.02319336
2
Properties=species:S:1:pos:R:3:forces:R:3 energy=27.02146578152227 pbc="F F F"
Al       0.00000000       0.00000000       0.00000000       0.00000000       0.00000000    -185.55253601
Al       0.00000000       0.00000000       0.93434343       0.00000000       0.00000000     185.55253601
2
Properties=species:S:1:pos:R:3:forces:R:3 energy=17.120670882559402 pbc="F F F"
Al       0.00000000       0.00000000       0.00000000       0.00000000       0.00000000    -138.86021423
Al       0.00000000       0.00000000       0.99393939       0.00000000       0.00000000     138.86021423
2
Properties=species:S:1:pos:R:3:forces:R:3 energy=10.817971907550707 pbc="F F F"
Al       0.00000000       0.00000000       0.00000000       0.00000000       0.00000000     -76.62042236
Al       0.00000000       0.00000000       1.05353535       0.00000000       0.00000000      76.62042236
2
Properties=species:S:1:pos:R:3:forces:R:3 energy=7.449054594396209 pbc="F F F"
Al       0.00000000       0.00000000       0.00000000       0.00000000       0.00000000     -27.52831841
Al       0.00000000       0.00000000       1.11313131       0.00000000       0.00000000      27.52831841
2
Properties=species:S:1:pos:R:3:forces:R:3 energy=7.480169370632163 pbc="F F F"
Al       0.00000000       0.00000000       0.00000000       0.00000000       0.00000000      11.43450165
Al       0.00000000       0.00000000       1.17272727       0.00000000       0.00000000     -11.43450165
2
Properties=species:S:1:pos:R:3:forces:R:3 energy=7.48443636770127 pbc="F F F"
Al       0.00000000       0.00000000       0.00000000       0.00000000       0.00000000     -13.43485641
Al       0.00000000       0.00000000       1.23232323       0.00000000       0.00000000      13.43485641
2
Properties=species:S:1:pos:R:3:forces:R:3 energy=6.063241666942371 pbc="F F F"
Al       0.00000000       0.00000000       0.00000000       0.00000000       0.00000000     -31.01397133
Al       0.00000000       0.00000000       1.29191919       0.00000000       0.00000000      31.01397133
2
Properties=species:S:1:pos:R:3:forces:R:3 energy=4.119691018389475 pbc="F F F"
Al       0.00000000       0.00000000       0.00000000       0.00000000       0.00000000     -32.52046204
Al       0.00000000       0.00000000       1.35151515       0.00000000       0.00000000      32.52046204
2
Properties=species:S:1:pos:R:3:forces:R:3 energy=2.2993513845249534 pbc="F F F"
Al       0.00000000       0.00000000       0.00000000       0.00000000       0.00000000     -28.05233955
Al       0.00000000       0.00000000       1.41111111       0.00000000       0.00000000      28.05233955
2
Properties=species:S:1:pos:R:3:forces:R:3 energy=0.7922628943135769 pbc="F F F"
Al       0.00000000       0.00000000       0.00000000       0.00000000       0.00000000     -22.74098587
Al       0.00000000       0.00000000       1.47070707       0.00000000       0.00000000      22.74098587
2
Properties=species:S:1:pos:R:3:forces:R:3 energy=-0.4554184051370386 pbc="F F F"
Al       0.00000000       0.00000000       0.00000000       0.00000000       0.00000000     -19.52421761
Al       0.00000000       0.00000000       1.53030303       0.00000000       0.00000000      19.52421761
2
Properties=species:S:1:pos:R:3:forces:R:3 energy=-1.5712082781631733 pbc="F F F"
Al       0.00000000       0.00000000       0.00000000       0.00000000       0.00000000     -18.11194611
Al       0.00000000       0.00000000       1.58989899       0.00000000       0.00000000      18.11194611
2
Properties=species:S:1:pos:R:3:forces:R:3 energy=-2.6243470374076745 pbc="F F F"
Al       0.00000000       0.00000000       0.00000000       0.00000000       0.00000000     -17.23232269
Al       0.00000000       0.00000000       1.64949495       0.00000000       0.00000000      17.23232269
2
Properties=species:S:1:pos:R:3:forces:R:3 energy=-3.6202369603531617 pbc="F F F"
Al       0.00000000       0.00000000       0.00000000       0.00000000       0.00000000     -16.12747383
Al       0.00000000       0.00000000       1.70909091       0.00000000       0.00000000      16.12747383
2
Properties=species:S:1:pos:R:3:forces:R:3 energy=-4.539265947758741 pbc="F F F"
Al       0.00000000       0.00000000       0.00000000       0.00000000       0.00000000     -14.65828419
Al       0.00000000       0.00000000       1.76868687       0.00000000       0.00000000      14.65828419
2
Properties=species:S:1:pos:R:3:forces:R:3 energy=-5.361546271083059 pbc="F F F"
Al       0.00000000       0.00000000       0.00000000       0.00000000       0.00000000     -12.89459038
Al       0.00000000       0.00000000       1.82828283       0.00000000       0.00000000      12.89459038
2
Properties=species:S:1:pos:R:3:forces:R:3 energy=-6.071955988776284 pbc="F F F"
Al       0.00000000       0.00000000       0.00000000       0.00000000       0.00000000     -10.91910934
Al       0.00000000       0.00000000       1.88787879       0.00000000       0.00000000      10.91910934
2
Properties=species:S:1:pos:R:3:forces:R:3 energy=-6.661142876231557 pbc="F F F"
Al       0.00000000       0.00000000       0.00000000       0.00000000       0.00000000      -8.85116482
Al       0.00000000       0.00000000       1.94747475       0.00000000       0.00000000       8.85116482
2
Properties=species:S:1:pos:R:3:forces:R:3 energy=-7.128448918761404 pbc="F F F"
Al       0.00000000       0.00000000       0.00000000       0.00000000       0.00000000      -6.85867596
Al       0.00000000       0.00000000       2.00707071       0.00000000       0.00000000       6.85867596
2
Properties=species:S:1:pos:R:3:forces:R:3 energy=-7.483353710346899 pbc="F F F"
Al       0.00000000       0.00000000       0.00000000       0.00000000       0.00000000      -5.10073614
Al       0.00000000       0.00000000       2.06666667       0.00000000       0.00000000       5.10073614
2
Properties=species:S:1:pos:R:3:forces:R:3 energy=-7.742816607667358 pbc="F F F"
Al       0.00000000       0.00000000       0.00000000       0.00000000       0.00000000      -3.66185570
Al       0.00000000       0.00000000       2.12626263       0.00000000       0.00000000       3.66185570
2
Properties=species:S:1:pos:R:3:forces:R:3 energy=-7.926108320652969 pbc="F F F"
Al       0.00000000       0.00000000       0.00000000       0.00000000       0.00000000      -2.53793645
Al       0.00000000       0.00000000       2.18585859       0.00000000       0.00000000       2.53793645
2
Properties=species:S:1:pos:R:3:forces:R:3 energy=-8.050504200051371 pbc="F F F"
Al       0.00000000       0.00000000       0.00000000       0.00000000       0.00000000      -1.67512465
Al       0.00000000       0.00000000       2.24545455       0.00000000       0.00000000       1.67512465
2
Properties=species:S:1:pos:R:3:forces:R:3 energy=-8.129860455526234 pbc="F F F"
Al       0.00000000       0.00000000       0.00000000       0.00000000       0.00000000      -1.01902056
Al       0.00000000       0.00000000       2.30505051       0.00000000       0.00000000       1.01902056
2
Properties=species:S:1:pos:R:3:forces:R:3 energy=-8.175356149121463 pbc="F F F"
Al       0.00000000       0.00000000       0.00000000       0.00000000       0.00000000      -0.53396475
Al       0.00000000       0.00000000       2.36464646       0.00000000       0.00000000       0.53396475
2
Properties=species:S:1:pos:R:3:forces:R:3 energy=-8.196330123669402 pbc="F F F"
Al       0.00000000       0.00000000       0.00000000       0.00000000       0.00000000      -0.19077726
Al       0.00000000       0.00000000       2.42424242       0.00000000       0.00000000       0.19077726
2
Properties=species:S:1:pos:R:3:forces:R:3 energy=-8.200168364683368 pbc="F F F"
Al       0.00000000       0.00000000       0.00000000       0.00000000       0.00000000       0.04833012
Al       0.00000000       0.00000000       2.48383838       0.00000000       0.00000000      -0.04833012
2
Properties=species:S:1:pos:R:3:forces:R:3 energy=-8.191739303201182 pbc="F F F"
Al       0.00000000       0.00000000       0.00000000       0.00000000       0.00000000       0.22849317
Al       0.00000000       0.00000000       2.54343434       0.00000000       0.00000000      -0.22849317
2
Properties=species:S:1:pos:R:3:forces:R:3 energy=-8.173268044817007 pbc="F F F"
Al       0.00000000       0.00000000       0.00000000       0.00000000       0.00000000       0.39136443
Al       0.00000000       0.00000000       2.60303030       0.00000000       0.00000000      -0.39136443
2
Properties=species:S:1:pos:R:3:forces:R:3 energy=-8.144870097685176 pbc="F F F"
Al       0.00000000       0.00000000       0.00000000       0.00000000       0.00000000       0.56462765
Al       0.00000000       0.00000000       2.66262626       0.00000000       0.00000000      -0.56462765
2
Properties=species:S:1:pos:R:3:forces:R:3 energy=-8.105627474793303 pbc="F F F"
Al       0.00000000       0.00000000       0.00000000       0.00000000       0.00000000       0.75426447
Al       0.00000000       0.00000000       2.72222222       0.00000000       0.00000000      -0.75426447
2
Properties=species:S:1:pos:R:3:forces:R:3 energy=-8.054965569208818 pbc="F F F"
Al       0.00000000       0.00000000       0.00000000       0.00000000       0.00000000       0.94358367
Al       0.00000000       0.00000000       2.78181818       0.00000000       0.00000000      -0.94358367
2
Properties=species:S:1:pos:R:3:forces:R:3 energy=-7.993747272730322 pbc="F F F"
Al       0.00000000       0.00000000       0.00000000       0.00000000       0.00000000       1.10351479
Al       0.00000000       0.00000000       2.84141414       0.00000000       0.00000000      -1.10351479
2
Properties=species:S:1:pos:R:3:forces:R:3 energy=-7.924535867120826 pbc="F F F"
Al       0.00000000       0.00000000       0.00000000       0.00000000       0.00000000       1.20848751
Al       0.00000000       0.00000000       2.90101010       0.00000000       0.00000000      -1.20848751
2
Properties=species:S:1:pos:R:3:forces:R:3 energy=-7.8510410986293815 pbc="F F F"
Al       0.00000000       0.00000000       0.00000000       0.00000000       0.00000000       1.24668026
Al       0.00000000       0.00000000       2.96060606       0.00000000       0.00000000      -1.24668026
2
Properties=species:S:1:pos:R:3:forces:R:3 energy=-7.7772244425902555 pbc="F F F"
Al       0.00000000       0.00000000       0.00000000       0.00000000       0.00000000       1.22063720
Al       0.00000000       0.00000000       3.02020202       0.00000000       0.00000000      -1.22063720
2
Properties=species:S:1:pos:R:3:forces:R:3 energy=-7.706593351965913 pbc="F F F"
Al       0.00000000       0.00000000       0.00000000       0.00000000       0.00000000       1.14228773
Al       0.00000000       0.00000000       3.07979798       0.00000000       0.00000000      -1.14228773
2
Properties=species:S:1:pos:R:3:forces:R:3 energy=-7.641776020574827 pbc="F F F"
Al       0.00000000       0.00000000       0.00000000       0.00000000       0.00000000       1.02866411
Al       0.00000000       0.00000000       3.13939394       0.00000000       0.00000000      -1.02866411
2
Properties=species:S:1:pos:R:3:forces:R:3 energy=-7.584288869020152 pbc="F F F"
Al       0.00000000       0.00000000       0.00000000       0.00000000       0.00000000       0.89974821
Al       0.00000000       0.00000000       3.19898990       0.00000000       0.00000000      -0.89974821
2
Properties=species:S:1:pos:R:3:forces:R:3 energy=-7.534439486934438 pbc="F F F"
Al       0.00000000       0.00000000       0.00000000       0.00000000       0.00000000       0.77541208
Al       0.00000000       0.00000000       3.25858586       0.00000000       0.00000000      -0.77541208
2
Properties=species:S:1:pos:R:3:forces:R:3 energy=-7.491458448850213 pbc="F F F"
Al       0.00000000       0.00000000       0.00000000       0.00000000       0.00000000       0.67135662
Al       0.00000000       0.00000000       3.31818182       0.00000000       0.00000000      -0.67135662
2
Properties=species:S:1:pos:R:3:forces:R:3 energy=-7.4538322046907375 pbc="F F F"
Al       0.00000000       0.00000000       0.00000000       0.00000000       0.00000000       0.59656590
Al       0.00000000       0.00000000       3.37777778       0.00000000       0.00000000      -0.59656590
2
Properties=species:S:1:pos:R:3:forces:R:3 energy=-7.419725381917825 pbc="F F F"
Al       0.00000000       0.00000000       0.00000000       0.00000000       0.00000000       0.55317974
Al       0.00000000       0.00000000       3.43737374       0.00000000       0.00000000      -0.55317974
2
Properties=species:S:1:pos:R:3:forces:R:3 energy=-7.3873345840484 pbc="F F F"
Al       0.00000000       0.00000000       0.00000000       0.00000000       0.00000000       0.53806061
Al       0.00000000       0.00000000       3.49696970       0.00000000       0.00000000      -0.53806061
2
Properties=species:S:1:pos:R:3:forces:R:3 energy=-7.355154918467642 pbc="F F F"
Al       0.00000000       0.00000000       0.00000000       0.00000000       0.00000000       0.54495353
Al       0.00000000       0.00000000       3.55656566       0.00000000       0.00000000      -0.54495353
2
Properties=species:S:1:pos:R:3:forces:R:3 energy=-7.322090240607424 pbc="F F F"
Al       0.00000000       0.00000000       0.00000000       0.00000000       0.00000000       0.56649292
Al       0.00000000       0.00000000       3.61616162       0.00000000       0.00000000      -0.56649292
2
Properties=species:S:1:pos:R:3:forces:R:3 energy=-7.287481393300836 pbc="F F F"
Al       0.00000000       0.00000000       0.00000000       0.00000000       0.00000000       0.59574717
Al       0.00000000       0.00000000       3.67575758       0.00000000       0.00000000      -0.59574717
2
Properties=species:S:1:pos:R:3:forces:R:3 energy=-7.251040818239054 pbc="F F F"
Al       0.00000000       0.00000000       0.00000000       0.00000000       0.00000000       0.62716007
Al       0.00000000       0.00000000       3.73535354       0.00000000       0.00000000      -0.62716007
2
Properties=species:S:1:pos:R:3:forces:R:3 energy=-7.212763273301236 pbc="F F F"
Al       0.00000000       0.00000000       0.00000000       0.00000000       0.00000000       0.65688133
Al       0.00000000       0.00000000       3.79494949       0.00000000       0.00000000      -0.65688133
2
Properties=species:S:1:pos:R:3:forces:R:3 energy=-7.17282538780871 pbc="F F F"
Al       0.00000000       0.00000000       0.00000000       0.00000000       0.00000000       0.68261373
Al       0.00000000       0.00000000       3.85454545       0.00000000       0.00000000      -0.68261373
2
Properties=species:S:1:pos:R:3:forces:R:3 energy=-7.131503755823636 pbc="F F F"
Al       0.00000000       0.00000000       0.00000000       0.00000000       0.00000000       0.70319861
Al       0.00000000       0.00000000       3.91414141       0.00000000       0.00000000      -0.70319861
2
Properties=species:S:1:pos:R:3:forces:R:3 energy=-7.089120665411981 pbc="F F F"
Al       0.00000000       0.00000000       0.00000000       0.00000000       0.00000000       0.71816945
Al       0.00000000       0.00000000       3.97373737       0.00000000       0.00000000      -0.71816945
2
Properties=species:S:1:pos:R:3:forces:R:3 energy=-7.046017405266133 pbc="F F F"
Al       0.00000000       0.00000000       0.00000000       0.00000000       0.00000000       0.72743952
Al       0.00000000       0.00000000       4.03333333       0.00000000       0.00000000      -0.72743952
2
Properties=species:S:1:pos:R:3:forces:R:3 energy=-7.002527159430701 pbc="F F F"
Al       0.00000000       0.00000000       0.00000000       0.00000000       0.00000000       0.73114312
Al       0.00000000       0.00000000       4.09292929       0.00000000       0.00000000      -0.73114312
2
Properties=species:S:1:pos:R:3:forces:R:3 energy=-6.958974950281718 pbc="F F F"
Al       0.00000000       0.00000000       0.00000000       0.00000000       0.00000000       0.72958857
Al       0.00000000       0.00000000       4.15252525       0.00000000       0.00000000      -0.72958857
2
Properties=species:S:1:pos:R:3:forces:R:3 energy=-6.915661570199166 pbc="F F F"
Al       0.00000000       0.00000000       0.00000000       0.00000000       0.00000000       0.72324175
Al       0.00000000       0.00000000       4.21212121       0.00000000       0.00000000      -0.72324175
2
Properties=species:S:1:pos:R:3:forces:R:3 energy=-6.872854417122847 pbc="F F F"
Al       0.00000000       0.00000000       0.00000000       0.00000000       0.00000000       0.71267104
Al       0.00000000       0.00000000       4.27171717       0.00000000       0.00000000      -0.71267104
2
Properties=species:S:1:pos:R:3:forces:R:3 energy=-6.830788988420289 pbc="F F F"
Al       0.00000000       0.00000000       0.00000000       0.00000000       0.00000000       0.69845831
Al       0.00000000       0.00000000       4.33131313       0.00000000       0.00000000      -0.69845831
2
Properties=species:S:1:pos:R:3:forces:R:3 energy=-6.789666030951187 pbc="F F F"
Al       0.00000000       0.00000000       0.00000000       0.00000000       0.00000000       0.68110472
Al       0.00000000       0.00000000       4.39090909       0.00000000       0.00000000      -0.68110472
2
Properties=species:S:1:pos:R:3:forces:R:3 energy=-6.749661071474913 pbc="F F F"
Al       0.00000000       0.00000000       0.00000000       0.00000000       0.00000000       0.66097695
Al       0.00000000       0.00000000       4.45050505       0.00000000       0.00000000      -0.66097695
2
Properties=species:S:1:pos:R:3:forces:R:3 energy=-6.710934450821687 pbc="F F F"
Al       0.00000000       0.00000000       0.00000000       0.00000000       0.00000000       0.63827825
Al       0.00000000       0.00000000       4.51010101       0.00000000       0.00000000      -0.63827825
2
Properties=species:S:1:pos:R:3:forces:R:3 energy=-6.673634181747703 pbc="F F F"
Al       0.00000000       0.00000000       0.00000000       0.00000000       0.00000000       0.61301470
Al       0.00000000       0.00000000       4.56969697       0.00000000       0.00000000      -0.61301470
2
Properties=species:S:1:pos:R:3:forces:R:3 energy=-6.637922168643186 pbc="F F F"
Al       0.00000000       0.00000000       0.00000000       0.00000000       0.00000000       0.58497268
Al       0.00000000       0.00000000       4.62929293       0.00000000       0.00000000      -0.58497268
2
Properties=species:S:1:pos:R:3:forces:R:3 energy=-6.603974231291058 pbc="F F F"
Al       0.00000000       0.00000000       0.00000000       0.00000000       0.00000000       0.55375034
Al       0.00000000       0.00000000       4.68888889       0.00000000       0.00000000      -0.55375034
2
Properties=species:S:1:pos:R:3:forces:R:3 energy=-6.571991569549579 pbc="F F F"
Al       0.00000000       0.00000000       0.00000000       0.00000000       0.00000000       0.51892006
Al       0.00000000       0.00000000       4.74848485       0.00000000       0.00000000      -0.51892006
2
Properties=species:S:1:pos:R:3:forces:R:3 energy=-6.542196883714726 pbc="F F F"
Al       0.00000000       0.00000000       0.00000000       0.00000000       0.00000000       0.48040223
Al       0.00000000       0.00000000       4.80808081       0.00000000       0.00000000      -0.48040223
2
Properties=species:S:1:pos:R:3:forces:R:3 energy=-6.514791975610891 pbc="F F F"
Al       0.00000000       0.00000000       0.00000000       0.00000000       0.00000000       0.43887934
Al       0.00000000       0.00000000       4.86767677       0.00000000       0.00000000      -0.43887934
2
Properties=species:S:1:pos:R:3:forces:R:3 energy=-6.489910081506129 pbc="F F F"
Al       0.00000000       0.00000000       0.00000000       0.00000000       0.00000000       0.39614311
Al       0.00000000       0.00000000       4.92727273       0.00000000       0.00000000      -0.39614311
2
Properties=species:S:1:pos:R:3:forces:R:3 energy=-6.467542398800059 pbc="F F F"
Al       0.00000000       0.00000000       0.00000000       0.00000000       0.00000000       0.35504955
Al       0.00000000       0.00000000       4.98686869       0.00000000       0.00000000      -0.35504955
2
Properties=species:S:1:pos:R:3:forces:R:3 energy=-6.447493746503794 pbc="F F F"
Al       0.00000000       0.00000000       0.00000000       0.00000000       0.00000000       0.31892604
Al       0.00000000       0.00000000       5.04646465       0.00000000       0.00000000      -0.31892604
2
Properties=species:S:1:pos:R:3:forces:R:3 energy=-6.429376832898628 pbc="F F F"
Al       0.00000000       0.00000000       0.00000000       0.00000000       0.00000000       0.29048392
Al       0.00000000       0.00000000       5.10606061       0.00000000       0.00000000      -0.29048392
2
Properties=species:S:1:pos:R:3:forces:R:3 energy=-6.41269806721757 pbc="F F F"
Al       0.00000000       0.00000000       0.00000000       0.00000000       0.00000000       0.27049884
Al       0.00000000       0.00000000       5.16565657       0.00000000       0.00000000      -0.27049884
2
Properties=species:S:1:pos:R:3:forces:R:3 energy=-6.397008258402323 pbc="F F F"
Al       0.00000000       0.00000000       0.00000000       0.00000000       0.00000000       0.25673866
Al       0.00000000       0.00000000       5.22525253       0.00000000       0.00000000      -0.25673866
2
Properties=species:S:1:pos:R:3:forces:R:3 energy=-6.382081389439826 pbc="F F F"
Al       0.00000000       0.00000000       0.00000000       0.00000000       0.00000000       0.24378817
Al       0.00000000       0.00000000       5.28484848       0.00000000       0.00000000      -0.24378817
2
Properties=species:S:1:pos:R:3:forces:R:3 energy=-6.368058627727723 pbc="F F F"
Al       0.00000000       0.00000000       0.00000000       0.00000000       0.00000000       0.22562858
Al       0.00000000       0.00000000       5.34444444       0.00000000       0.00000000      -0.22562858
2
Properties=species:S:1:pos:R:3:forces:R:3 energy=-6.355277581733727 pbc="F F F"
Al       0.00000000       0.00000000       0.00000000       0.00000000       0.00000000       0.20351987
Al       0.00000000       0.00000000       5.40404040       0.00000000       0.00000000      -0.20351987
2
Properties=species:S:1:pos:R:3:forces:R:3 energy=-6.343584712108913 pbc="F F F"
Al       0.00000000       0.00000000       0.00000000       0.00000000       0.00000000       0.19186468
Al       0.00000000       0.00000000       5.46363636       0.00000000       0.00000000      -0.19186468
2
Properties=species:S:1:pos:R:3:forces:R:3 energy=-6.332114540244361 pbc="F F F"
Al       0.00000000       0.00000000       0.00000000       0.00000000       0.00000000       0.19359514
Al       0.00000000       0.00000000       5.52323232       0.00000000       0.00000000      -0.19359514
2
Properties=species:S:1:pos:R:3:forces:R:3 energy=-6.3208140942900615 pbc="F F F"
Al       0.00000000       0.00000000       0.00000000       0.00000000       0.00000000       0.18138342
Al       0.00000000       0.00000000       5.58282828       0.00000000       0.00000000      -0.18138342
2
Properties=species:S:1:pos:R:3:forces:R:3 energy=-6.310881067066417 pbc="F F F"
Al       0.00000000       0.00000000       0.00000000       0.00000000       0.00000000       0.15098457
Al       0.00000000       0.00000000       5.64242424       0.00000000       0.00000000      -0.15098457
2
Properties=species:S:1:pos:R:3:forces:R:3 energy=-6.302621927697994 pbc="F F F"
Al       0.00000000       0.00000000       0.00000000       0.00000000       0.00000000       0.12965937
Al       0.00000000       0.00000000       5.70202020       0.00000000       0.00000000      -0.12965937
2
Properties=species:S:1:pos:R:3:forces:R:3 energy=-6.2950069723563 pbc="F F F"
Al       0.00000000       0.00000000       0.00000000       0.00000000       0.00000000       0.12767422
Al       0.00000000       0.00000000       5.76161616       0.00000000       0.00000000      -0.12767422
2
Properties=species:S:1:pos:R:3:forces:R:3 energy=-6.287681627352857 pbc="F F F"
Al       0.00000000       0.00000000       0.00000000       0.00000000       0.00000000       0.11260150
Al       0.00000000       0.00000000       5.82121212       0.00000000       0.00000000      -0.11260150
2
Properties=species:S:1:pos:R:3:forces:R:3 energy=-6.282229126605415 pbc="F F F"
Al       0.00000000       0.00000000       0.00000000       0.00000000       0.00000000       0.06787135
Al       0.00000000       0.00000000       5.88080808       0.00000000       0.00000000      -0.06787135
2
Properties=species:S:1:pos:R:3:forces:R:3 energy=-6.279584608681863 pbc="F F F"
Al       0.00000000       0.00000000       0.00000000       0.00000000       0.00000000       0.02271317
Al       0.00000000       0.00000000       5.94040404       0.00000000       0.00000000      -0.02271317
2
Properties=species:S:1:pos:R:3:forces:R:3 energy=-6.27894887779406 pbc="F F F"
Al       0.00000000       0.00000000       0.00000000       0.00000000       0.00000000       0.00469318
Al       0.00000000       0.00000000       6.00000000       0.00000000       0.00000000      -0.00469318
