2
Properties=species:S:1:pos:R:3:forces:R:3 energy=8083.299057789823 pbc="F F F"
Ar       0.00000000       0.00000000       0.00000000       0.00000000       0.00000000 -173859.15625000
Ar       0.00000000       0.00000000       0.10000000       0.00000000       0.00000000  173859.15625000
2
Properties=species:S:1:pos:R:3:forces:R:3 energy=2686.2853859148227 pbc="F F F"
Ar       0.00000000       0.00000000       0.00000000       0.00000000       0.00000000  -43352.75000000
Ar       0.00000000       0.00000000       0.15959596       0.00000000       0.00000000   43352.75000000
2
Properties=species:S:1:pos:R:3:forces:R:3 energy=1125.5241554460727 pbc="F F F"
Ar       0.00000000       0.00000000       0.00000000       0.00000000       0.00000000  -14983.61914062
Ar       0.00000000       0.00000000       0.21919192       0.00000000       0.00000000   14983.61914062
2
Properties=species:S:1:pos:R:3:forces:R:3 energy=537.3594825953021 pbc="F F F"
Ar       0.00000000       0.00000000       0.00000000       0.00000000       0.00000000   -6254.84277344
Ar       0.00000000       0.00000000       0.27878788       0.00000000       0.00000000    6254.84277344
2
Properties=species:S:1:pos:R:3:forces:R:3 energy=277.38194353280204 pbc="F F F"
Ar       0.00000000       0.00000000       0.00000000       0.00000000       0.00000000   -2951.47534180
Ar       0.00000000       0.00000000       0.33838384       0.00000000       0.00000000    2951.47534180
2
Properties=species:S:1:pos:R:3:forces:R:3 energy=149.82467729863845 pbc="F F F"
Ar       0.00000000       0.00000000       0.00000000       0.00000000       0.00000000   -1512.62207031
Ar       0.00000000       0.00000000       0.39797980       0.00000000       0.00000000    1512.62207031
2
Properties=species:S:1:pos:R:3:forces:R:3 energy=82.63188250120962 pbc="F F F"
Ar       0.00000000       0.00000000       0.00000000       0.00000000       0.00000000    -821.42187500
Ar       0.00000000       0.00000000       0.45757576       0.00000000       0.00000000     821.42187500
2
Properties=species:S:1:pos:R:3:forces:R:3 energy=45.39528353705951 pbc="F F F"
Ar       0.00000000       0.00000000       0.00000000       0.00000000       0.00000000    -465.59194946
Ar       0.00000000       0.00000000       0.51717172       0.00000000       0.00000000     465.59194946
2
Properties=species:S:1:pos:R:3:forces:R:3 energy=23.95536884160993 pbc="F F F"
Ar       0.00000000       0.00000000       0.00000000       0.00000000       0.00000000    -272.73898315
Ar       0.00000000       0.00000000       0.57676768       0.00000000       0.00000000     272.73898315
2
Properties=species:S:1:pos:R:3:forces:R:3 energy=11.220413066622525 pbc="F F F"
Ar       0.00000000       0.00000000       0.00000000       0.00000000       0.00000000    -164.65036011
Ar       0.00000000       0.00000000       0.63636364       0.00000000       0.00000000     164.65036011
2
Properties=species:S:1:pos:R:3:forces:R:3 energy=3.451442598503371 pbc="F F F"
Ar       0.00000000       0.00000000       0.00000000       0.00000000       0.00000000    -101.58003998
Ar       0.00000000       0.00000000       0.69595960       0.00000000       0.00000000     101.58003998
2
Properties=species:S:1:pos:R:3:forces:R:3 energy=-1.386554806341845 pbc="F F F"
Ar       0.00000000       0.00000000       0.00000000       0.00000000       0.00000000     -63.92285156
Ar       0.00000000       0.00000000       0.75555556       0.00000000       0.00000000      63.92285156
2
Properties=species:S:1:pos:R:3:forces:R:3 energy=-4.4555907661479806 pbc="F F F"
Ar       0.00000000       0.00000000       0.00000000       0.00000000       0.00000000     -40.91473007
Ar       0.00000000       0.00000000       0.81515152       0.00000000       0.00000000      40.91473007
2
Properties=species:S:1:pos:R:3:forces:R:3 energy=-6.434726688182627 pbc="F F F"
Ar       0.00000000       0.00000000       0.00000000       0.00000000       0.00000000     -26.61738968
Ar       0.00000000       0.00000000       0.87474747       0.00000000       0.00000000      26.61738968
2
Properties=species:S:1:pos:R:3:forces:R:3 energy=-7.731893415508894 pbc="F F F"
Ar       0.00000000       0.00000000       0.00000000       0.00000000       0.00000000     -17.58054733
Ar       0.00000000       0.00000000       0.93434343       0.00000000       0.00000000      17.58054733
2
Properties=species:S:1:pos:R:3:forces:R:3 energy=-8.59153435799062 pbc="F F F"
Ar       0.00000000       0.00000000       0.00000000       0.00000000       0.00000000     -11.66407394
Ar       0.00000000       0.00000000       0.99393939       0.00000000       0.00000000      11.66407394
2
Properties=species:S:1:pos:R:3:forces:R:3 energy=-9.159665625451069 pbc="F F F"
Ar       0.00000000       0.00000000       0.00000000       0.00000000       0.00000000      -7.65336275
Ar       0.00000000       0.00000000       1.05353535       0.00000000       0.00000000       7.65336275
2
Properties=species:S:1:pos:R:3:forces:R:3 energy=-9.528475086292703 pbc="F F F"
Ar       0.00000000       0.00000000       0.00000000       0.00000000       0.00000000      -4.89777279
Ar       0.00000000       0.00000000       1.11313131       0.00000000       0.00000000       4.89777279
2
Properties=species:S:1:pos:R:3:forces:R:3 energy=-9.761372531162197 pbc="F F F"
Ar       0.00000000       0.00000000       0.00000000       0.00000000       0.00000000      -3.04611492
Ar       0.00000000       0.00000000       1.17272727       0.00000000       0.00000000       3.04611492
2
Properties=species:S:1:pos:R:3:forces:R:3 energy=-9.90403322034649 pbc="F F F"
Ar       0.00000000       0.00000000       0.00000000       0.00000000       0.00000000      -1.82383978
Ar       0.00000000       0.00000000       1.23232323       0.00000000       0.00000000       1.82383978
2
Properties=species:S:1:pos:R:3:forces:R:3 energy=-9.986516948103839 pbc="F F F"
Ar       0.00000000       0.00000000       0.00000000       0.00000000       0.00000000      -0.99666965
Ar       0.00000000       0.00000000       1.29191919       0.00000000       0.00000000       0.99666965
2
Properties=species:S:1:pos:R:3:forces:R:3 energy=-10.028168020509565 pbc="F F F"
Ar       0.00000000       0.00000000       0.00000000       0.00000000       0.00000000      -0.43981004
Ar       0.00000000       0.00000000       1.35151515       0.00000000       0.00000000       0.43981004
2
Properties=species:S:1:pos:R:3:forces:R:3 energy=-10.04287476812309 pbc="F F F"
Ar       0.00000000       0.00000000       0.00000000       0.00000000       0.00000000      -0.08112485
Ar       0.00000000       0.00000000       1.41111111       0.00000000       0.00000000       0.08112485
2
Properties=species:S:1:pos:R:3:forces:R:3 energy=-10.040505781092365 pbc="F F F"
Ar       0.00000000       0.00000000       0.00000000       0.00000000       0.00000000       0.14257358
Ar       0.00000000       0.00000000       1.47070707       0.00000000       0.00000000      -0.14257358
2
Properties=species:S:1:pos:R:3:forces:R:3 energy=-10.027647099004472 pbc="F F F"
Ar       0.00000000       0.00000000       0.00000000       0.00000000       0.00000000       0.27674976
Ar       0.00000000       0.00000000       1.53030303       0.00000000       0.00000000      -0.27674976
2
Properties=species:S:1:pos:R:3:forces:R:3 energy=-10.008746617293463 pbc="F F F"
Ar       0.00000000       0.00000000       0.00000000       0.00000000       0.00000000       0.34883401
Ar       0.00000000       0.00000000       1.58989899       0.00000000       0.00000000      -0.34883401
2
Properties=species:S:1:pos:R:3:forces:R:3 energy=-9.98695141487408 pbc="F F F"
Ar       0.00000000       0.00000000       0.00000000       0.00000000       0.00000000       0.37635797
Ar       0.00000000       0.00000000       1.64949495       0.00000000       0.00000000      -0.37635797
2
Properties=species:S:1:pos:R:3:forces:R:3 energy=-9.964501620446494 pbc="F F F"
Ar       0.00000000       0.00000000       0.00000000       0.00000000       0.00000000       0.37294504
Ar       0.00000000       0.00000000       1.70909091       0.00000000       0.00000000      -0.37294504
2
Properties=species:S:1:pos:R:3:forces:R:3 energy=-9.942872509969456 pbc="F F F"
Ar       0.00000000       0.00000000       0.00000000       0.00000000       0.00000000       0.35072678
Ar       0.00000000       0.00000000       1.76868687       0.00000000       0.00000000      -0.35072678
2
Properties=species:S:1:pos:R:3:forces:R:3 energy=-9.922860336556809 pbc="F F F"
Ar       0.00000000       0.00000000       0.00000000       0.00000000       0.00000000       0.32020220
Ar       0.00000000       0.00000000       1.82828283       0.00000000       0.00000000      -0.32020220
2
Properties=species:S:1:pos:R:3:forces:R:3 energy=-9.904717752230427 pbc="F F F"
Ar       0.00000000       0.00000000       0.00000000       0.00000000       0.00000000       0.28902370
Ar       0.00000000       0.00000000       1.88787879       0.00000000       0.00000000      -0.28902370
2
Properties=species:S:1:pos:R:3:forces:R:3 energy=-9.88833881915368 pbc="F F F"
Ar       0.00000000       0.00000000       0.00000000       0.00000000       0.00000000       0.26143193
Ar       0.00000000       0.00000000       1.94747475       0.00000000       0.00000000      -0.26143193
2
Properties=species:S:1:pos:R:3:forces:R:3 energy=-9.873450698169028 pbc="F F F"
Ar       0.00000000       0.00000000       0.00000000       0.00000000       0.00000000       0.23912871
Ar       0.00000000       0.00000000       2.00707071       0.00000000       0.00000000      -0.23912871
2
Properties=species:S:1:pos:R:3:forces:R:3 energy=-9.859721415975681 pbc="F F F"
Ar       0.00000000       0.00000000       0.00000000       0.00000000       0.00000000       0.22260010
Ar       0.00000000       0.00000000       2.06666667       0.00000000       0.00000000      -0.22260010
2
Properties=species:S:1:pos:R:3:forces:R:3 energy=-9.846805636349055 pbc="F F F"
Ar       0.00000000       0.00000000       0.00000000       0.00000000       0.00000000       0.21177283
Ar       0.00000000       0.00000000       2.12626263       0.00000000       0.00000000      -0.21177283
2
Properties=species:S:1:pos:R:3:forces:R:3 energy=-9.834370414495039 pbc="F F F"
Ar       0.00000000       0.00000000       0.00000000       0.00000000       0.00000000       0.20637305
Ar       0.00000000       0.00000000       2.18585859       0.00000000       0.00000000      -0.20637305
2
Properties=species:S:1:pos:R:3:forces:R:3 energy=-9.82212475541011 pbc="F F F"
Ar       0.00000000       0.00000000       0.00000000       0.00000000       0.00000000       0.20509924
Ar       0.00000000       0.00000000       2.24545455       0.00000000       0.00000000      -0.20509924
2
Properties=species:S:1:pos:R:3:forces:R:3 energy=-9.809881607067654 pbc="F F F"
Ar       0.00000000       0.00000000       0.00000000       0.00000000       0.00000000       0.20596485
Ar       0.00000000       0.00000000       2.30505051       0.00000000       0.00000000      -0.20596485
2
Properties=species:S:1:pos:R:3:forces:R:3 energy=-9.79757406931755 pbc="F F F"
Ar       0.00000000       0.00000000       0.00000000       0.00000000       0.00000000       0.20691884
Ar       0.00000000       0.00000000       2.36464646       0.00000000       0.00000000      -0.20691884
2
Properties=species:S:1:pos:R:3:forces:R:3 energy=-9.785253488913398 pbc="F F F"
Ar       0.00000000       0.00000000       0.00000000       0.00000000       0.00000000       0.20612937
Ar       0.00000000       0.00000000       2.42424242       0.00000000       0.00000000      -0.20612937
2
Properties=species:S:1:pos:R:3:forces:R:3 energy=-9.773066570140994 pbc="F F F"
Ar       0.00000000       0.00000000       0.00000000       0.00000000       0.00000000       0.20227328
Ar       0.00000000       0.00000000       2.48383838       0.00000000       0.00000000      -0.20227328
2
Properties=species:S:1:pos:R:3:forces:R:3 energy=-9.761217228637632 pbc="F F F"
Ar       0.00000000       0.00000000       0.00000000       0.00000000       0.00000000       0.19476084
Ar       0.00000000       0.00000000       2.54343434       0.00000000       0.00000000      -0.19476084
2
Properties=species:S:1:pos:R:3:forces:R:3 energy=-9.74992176988716 pbc="F F F"
Ar       0.00000000       0.00000000       0.00000000       0.00000000       0.00000000       0.18380474
Ar       0.00000000       0.00000000       2.60303030       0.00000000       0.00000000      -0.18380474
2
Properties=species:S:1:pos:R:3:forces:R:3 energy=-9.739360250641921 pbc="F F F"
Ar       0.00000000       0.00000000       0.00000000       0.00000000       0.00000000       0.17028107
Ar       0.00000000       0.00000000       2.66262626       0.00000000       0.00000000      -0.17028107
2
Properties=species:S:1:pos:R:3:forces:R:3 energy=-9.729651686558334 pbc="F F F"
Ar       0.00000000       0.00000000       0.00000000       0.00000000       0.00000000       0.15541001
Ar       0.00000000       0.00000000       2.72222222       0.00000000       0.00000000      -0.15541001
2
Properties=species:S:1:pos:R:3:forces:R:3 energy=-9.720839747082158 pbc="F F F"
Ar       0.00000000       0.00000000       0.00000000       0.00000000       0.00000000       0.14037342
Ar       0.00000000       0.00000000       2.78181818       0.00000000       0.00000000      -0.14037342
2
Properties=species:S:1:pos:R:3:forces:R:3 energy=-9.712907060959216 pbc="F F F"
Ar       0.00000000       0.00000000       0.00000000       0.00000000       0.00000000       0.12603512
Ar       0.00000000       0.00000000       2.84141414       0.00000000       0.00000000      -0.12603512
2
Properties=species:S:1:pos:R:3:forces:R:3 energy=-9.705794294869428 pbc="F F F"
Ar       0.00000000       0.00000000       0.00000000       0.00000000       0.00000000       0.11286340
Ar       0.00000000       0.00000000       2.90101010       0.00000000       0.00000000      -0.11286340
2
Properties=species:S:1:pos:R:3:forces:R:3 energy=-9.699427808794054 pbc="F F F"
Ar       0.00000000       0.00000000       0.00000000       0.00000000       0.00000000       0.10101502
Ar       0.00000000       0.00000000       2.96060606       0.00000000       0.00000000      -0.10101502
2
Properties=species:S:1:pos:R:3:forces:R:3 energy=-9.69372824344031 pbc="F F F"
Ar       0.00000000       0.00000000       0.00000000       0.00000000       0.00000000       0.09047180
Ar       0.00000000       0.00000000       3.02020202       0.00000000       0.00000000      -0.09047180
2
Properties=species:S:1:pos:R:3:forces:R:3 energy=-9.68862005738049 pbc="F F F"
Ar       0.00000000       0.00000000       0.00000000       0.00000000       0.00000000       0.08114452
Ar       0.00000000       0.00000000       3.07979798       0.00000000       0.00000000      -0.08114452
2
Properties=species:S:1:pos:R:3:forces:R:3 energy=-9.684034395994484 pbc="F F F"
Ar       0.00000000       0.00000000       0.00000000       0.00000000       0.00000000       0.07292905
Ar       0.00000000       0.00000000       3.13939394       0.00000000       0.00000000      -0.07292905
2
Properties=species:S:1:pos:R:3:forces:R:3 energy=-9.679907181349298 pbc="F F F"
Ar       0.00000000       0.00000000       0.00000000       0.00000000       0.00000000       0.06572395
Ar       0.00000000       0.00000000       3.19898990       0.00000000       0.00000000      -0.06572395
2
Properties=species:S:1:pos:R:3:forces:R:3 energy=-9.676181982725467 pbc="F F F"
Ar       0.00000000       0.00000000       0.00000000       0.00000000       0.00000000       0.05943585
Ar       0.00000000       0.00000000       3.25858586       0.00000000       0.00000000      -0.05943585
2
Properties=species:S:1:pos:R:3:forces:R:3 energy=-9.672807155990085 pbc="F F F"
Ar       0.00000000       0.00000000       0.00000000       0.00000000       0.00000000       0.05397892
Ar       0.00000000       0.00000000       3.31818182       0.00000000       0.00000000      -0.05397892
2
Properties=species:S:1:pos:R:3:forces:R:3 energy=-9.669733940999912 pbc="F F F"
Ar       0.00000000       0.00000000       0.00000000       0.00000000       0.00000000       0.04927514
Ar       0.00000000       0.00000000       3.37777778       0.00000000       0.00000000      -0.04927514
2
Properties=species:S:1:pos:R:3:forces:R:3 energy=-9.666920283030246 pbc="F F F"
Ar       0.00000000       0.00000000       0.00000000       0.00000000       0.00000000       0.04525214
Ar       0.00000000       0.00000000       3.43737374       0.00000000       0.00000000      -0.04525214
2
Properties=species:S:1:pos:R:3:forces:R:3 energy=-9.664327970960032 pbc="F F F"
Ar       0.00000000       0.00000000       0.00000000       0.00000000       0.00000000       0.04183885
Ar       0.00000000       0.00000000       3.49696970       0.00000000       0.00000000      -0.04183885
2
Properties=species:S:1:pos:R:3:forces:R:3 energy=-9.661922646379349 pbc="F F F"
Ar       0.00000000       0.00000000       0.00000000       0.00000000       0.00000000       0.03896156
Ar       0.00000000       0.00000000       3.55656566       0.00000000       0.00000000      -0.03896156
2
Properties=species:S:1:pos:R:3:forces:R:3 energy=-9.65967476082752 pbc="F F F"
Ar       0.00000000       0.00000000       0.00000000       0.00000000       0.00000000       0.03654023
Ar       0.00000000       0.00000000       3.61616162       0.00000000       0.00000000      -0.03654023
2
Properties=species:S:1:pos:R:3:forces:R:3 energy=-9.657559575793119 pbc="F F F"
Ar       0.00000000       0.00000000       0.00000000       0.00000000       0.00000000       0.03448895
Ar       0.00000000       0.00000000       3.67575758       0.00000000       0.00000000      -0.03448895
2
Properties=species:S:1:pos:R:3:forces:R:3 energy=-9.655558120744034 pbc="F F F"
Ar       0.00000000       0.00000000       0.00000000       0.00000000       0.00000000       0.03271913
Ar       0.00000000       0.00000000       3.73535354       0.00000000       0.00000000      -0.03271913
2
Properties=species:S:1:pos:R:3:forces:R:3 energy=-9.65365624380892 pbc="F F F"
Ar       0.00000000       0.00000000       0.00000000       0.00000000       0.00000000       0.03114497
Ar       0.00000000       0.00000000       3.79494949       0.00000000       0.00000000      -0.03114497
2
Properties=species:S:1:pos:R:3:forces:R:3 energy=-9.651843656518954 pbc="F F F"
Ar       0.00000000       0.00000000       0.00000000       0.00000000       0.00000000       0.02968937
Ar       0.00000000       0.00000000       3.85454545       0.00000000       0.00000000      -0.02968937
2
Properties=species:S:1:pos:R:3:forces:R:3 energy=-9.650116796018734 pbc="F F F"
Ar       0.00000000       0.00000000       0.00000000       0.00000000       0.00000000       0.02828899
Ar       0.00000000       0.00000000       3.91414141       0.00000000       0.00000000      -0.02828899
2
Properties=species:S:1:pos:R:3:forces:R:3 energy=-9.648472146970187 pbc="F F F"
Ar       0.00000000       0.00000000       0.00000000       0.00000000       0.00000000       0.02689663
Ar       0.00000000       0.00000000       3.97373737       0.00000000       0.00000000      -0.02689663
2
Properties=species:S:1:pos:R:3:forces:R:3 energy=-9.646911009924153 pbc="F F F"
Ar       0.00000000       0.00000000       0.00000000       0.00000000       0.00000000       0.02548282
Ar       0.00000000       0.00000000       4.03333333       0.00000000       0.00000000      -0.02548282
2
Properties=species:S:1:pos:R:3:forces:R:3 energy=-9.645435678703569 pbc="F F F"
Ar       0.00000000       0.00000000       0.00000000       0.00000000       0.00000000       0.02403311
Ar       0.00000000       0.00000000       4.09292929       0.00000000       0.00000000      -0.02403311
2
Properties=species:S:1:pos:R:3:forces:R:3 energy=-9.644047531866896 pbc="F F F"
Ar       0.00000000       0.00000000       0.00000000       0.00000000       0.00000000       0.02254554
Ar       0.00000000       0.00000000       4.15252525       0.00000000       0.00000000      -0.02254554
2
Properties=species:S:1:pos:R:3:forces:R:3 energy=-9.642748933325134 pbc="F F F"
Ar       0.00000000       0.00000000       0.00000000       0.00000000       0.00000000       0.02102736
Ar       0.00000000       0.00000000       4.21212121       0.00000000       0.00000000      -0.02102736
2
Properties=species:S:1:pos:R:3:forces:R:3 energy=-9.641541312321898 pbc="F F F"
Ar       0.00000000       0.00000000       0.00000000       0.00000000       0.00000000       0.01949214
Ar       0.00000000       0.00000000       4.27171717       0.00000000       0.00000000      -0.01949214
2
Properties=species:S:1:pos:R:3:forces:R:3 energy=-9.640425163037445 pbc="F F F"
Ar       0.00000000       0.00000000       0.00000000       0.00000000       0.00000000       0.01795883
Ar       0.00000000       0.00000000       4.33131313       0.00000000       0.00000000      -0.01795883
2
Properties=species:S:1:pos:R:3:forces:R:3 energy=-9.639400031125426 pbc="F F F"
Ar       0.00000000       0.00000000       0.00000000       0.00000000       0.00000000       0.01645069
Ar       0.00000000       0.00000000       4.39090909       0.00000000       0.00000000      -0.01645069
2
Properties=species:S:1:pos:R:3:forces:R:3 energy=-9.638463552712976 pbc="F F F"
Ar       0.00000000       0.00000000       0.00000000       0.00000000       0.00000000       0.01499448
Ar       0.00000000       0.00000000       4.45050505       0.00000000       0.00000000      -0.01499448
2
Properties=species:S:1:pos:R:3:forces:R:3 energy=-9.637611448857037 pbc="F F F"
Ar       0.00000000       0.00000000       0.00000000       0.00000000       0.00000000       0.01361733
Ar       0.00000000       0.00000000       4.51010101       0.00000000       0.00000000      -0.01361733
2
Properties=species:S:1:pos:R:3:forces:R:3 energy=-9.63683846238961 pbc="F F F"
Ar       0.00000000       0.00000000       0.00000000       0.00000000       0.00000000       0.01234111
Ar       0.00000000       0.00000000       4.56969697       0.00000000       0.00000000      -0.01234111
2
Properties=species:S:1:pos:R:3:forces:R:3 energy=-9.63613836365944 pbc="F F F"
Ar       0.00000000       0.00000000       0.00000000       0.00000000       0.00000000       0.01117695
Ar       0.00000000       0.00000000       4.62929293       0.00000000       0.00000000      -0.01117695
2
Properties=species:S:1:pos:R:3:forces:R:3 energy=-9.635503934296914 pbc="F F F"
Ar       0.00000000       0.00000000       0.00000000       0.00000000       0.00000000       0.01012104
Ar       0.00000000       0.00000000       4.68888889       0.00000000       0.00000000      -0.01012104
2
Properties=species:S:1:pos:R:3:forces:R:3 energy=-9.634929830018928 pbc="F F F"
Ar       0.00000000       0.00000000       0.00000000       0.00000000       0.00000000       0.00915393
Ar       0.00000000       0.00000000       4.74848485       0.00000000       0.00000000      -0.00915393
2
Properties=species:S:1:pos:R:3:forces:R:3 energy=-9.634411615075225 pbc="F F F"
Ar       0.00000000       0.00000000       0.00000000       0.00000000       0.00000000       0.00824658
Ar       0.00000000       0.00000000       4.80808081       0.00000000       0.00000000      -0.00824658
2
Properties=species:S:1:pos:R:3:forces:R:3 energy=-9.633946724040259 pbc="F F F"
Ar       0.00000000       0.00000000       0.00000000       0.00000000       0.00000000       0.00736894
Ar       0.00000000       0.00000000       4.86767677       0.00000000       0.00000000      -0.00736894
2
Properties=species:S:1:pos:R:3:forces:R:3 energy=-9.63353350101128 pbc="F F F"
Ar       0.00000000       0.00000000       0.00000000       0.00000000       0.00000000       0.00650169
Ar       0.00000000       0.00000000       4.92727273       0.00000000       0.00000000      -0.00650169
2
Properties=species:S:1:pos:R:3:forces:R:3 energy=-9.633171199212358 pbc="F F F"
Ar       0.00000000       0.00000000       0.00000000       0.00000000       0.00000000       0.00564247
Ar       0.00000000       0.00000000       4.98686869       0.00000000       0.00000000      -0.00564247
2
Properties=species:S:1:pos:R:3:forces:R:3 energy=-9.632859986340076 pbc="F F F"
Ar       0.00000000       0.00000000       0.00000000       0.00000000       0.00000000       0.00480456
Ar       0.00000000       0.00000000       5.04646465       0.00000000       0.00000000      -0.00480456
2
Properties=species:S:1:pos:R:3:forces:R:3 energy=-9.632598078392878 pbc="F F F"
Ar       0.00000000       0.00000000       0.00000000       0.00000000       0.00000000       0.00400336
Ar       0.00000000       0.00000000       5.10606061       0.00000000       0.00000000      -0.00400336
2
Properties=species:S:1:pos:R:3:forces:R:3 energy=-9.63238270344281 pbc="F F F"
Ar       0.00000000       0.00000000       0.00000000       0.00000000       0.00000000       0.00323559
Ar       0.00000000       0.00000000       5.16565657       0.00000000       0.00000000      -0.00323559
2
Properties=species:S:1:pos:R:3:forces:R:3 energy=-9.632212007796227 pbc="F F F"
Ar       0.00000000       0.00000000       0.00000000       0.00000000       0.00000000       0.00245963
Ar       0.00000000       0.00000000       5.22525253       0.00000000       0.00000000      -0.00245963
2
Properties=species:S:1:pos:R:3:forces:R:3 energy=-9.632090780217569 pbc="F F F"
Ar       0.00000000       0.00000000       0.00000000       0.00000000       0.00000000       0.00159312
Ar       0.00000000       0.00000000       5.28484848       0.00000000       0.00000000      -0.00159312
2
Properties=species:S:1:pos:R:3:forces:R:3 energy=-9.632025691477326 pbc="F F F"
Ar       0.00000000       0.00000000       0.00000000       0.00000000       0.00000000       0.00056983
Ar       0.00000000       0.00000000       5.34444444       0.00000000       0.00000000      -0.00056983
2
Properties=species:S:1:pos:R:3:forces:R:3 energy=-9.63202433889583 pbc="F F F"
Ar       0.00000000       0.00000000       0.00000000       0.00000000       0.00000000      -0.00048586
Ar       0.00000000       0.00000000       5.40404040       0.00000000       0.00000000       0.00048586
2
Properties=species:S:1:pos:R:3:forces:R:3 energy=-9.632075227102165 pbc="F F F"
Ar       0.00000000       0.00000000       0.00000000       0.00000000       0.00000000      -0.00109859
Ar       0.00000000       0.00000000       5.46363636       0.00000000       0.00000000       0.00109859
2
Properties=species:S:1:pos:R:3:forces:R:3 energy=-9.632138231488987 pbc="F F F"
Ar       0.00000000       0.00000000       0.00000000       0.00000000       0.00000000      -0.00093387
Ar       0.00000000       0.00000000       5.52323232       0.00000000       0.00000000       0.00093387
2
Properties=species:S:1:pos:R:3:forces:R:3 energy=-9.632179890002908 pbc="F F F"
Ar       0.00000000       0.00000000       0.00000000       0.00000000       0.00000000      -0.00046232
Ar       0.00000000       0.00000000       5.58282828       0.00000000       0.00000000       0.00046232
2
Properties=species:S:1:pos:R:3:forces:R:3 energy=-9.632196289843169 pbc="F F F"
Ar       0.00000000       0.00000000       0.00000000       0.00000000       0.00000000      -0.00008870
Ar       0.00000000       0.00000000       5.64242424       0.00000000       0.00000000       0.00008870
2
Properties=species:S:1:pos:R:3:forces:R:3 energy=-9.632189233424294 pbc="F F F"
Ar       0.00000000       0.00000000       0.00000000       0.00000000       0.00000000       0.00039450
Ar       0.00000000       0.00000000       5.70202020       0.00000000       0.00000000      -0.00039450
2
Properties=species:S:1:pos:R:3:forces:R:3 energy=-9.632141441754923 pbc="F F F"
Ar       0.00000000       0.00000000       0.00000000       0.00000000       0.00000000       0.00122491
Ar       0.00000000       0.00000000       5.76161616       0.00000000       0.00000000      -0.00122491
2
Properties=species:S:1:pos:R:3:forces:R:3 energy=-9.63204802796713 pbc="F F F"
Ar       0.00000000       0.00000000       0.00000000       0.00000000       0.00000000       0.00180264
Ar       0.00000000       0.00000000       5.82121212       0.00000000       0.00000000      -0.00180264
2
Properties=species:S:1:pos:R:3:forces:R:3 energy=-9.631944157534383 pbc="F F F"
Ar       0.00000000       0.00000000       0.00000000       0.00000000       0.00000000       0.00157915
Ar       0.00000000       0.00000000       5.88080808       0.00000000       0.00000000      -0.00157915
2
Properties=species:S:1:pos:R:3:forces:R:3 energy=-9.631865946733631 pbc="F F F"
Ar       0.00000000       0.00000000       0.00000000       0.00000000       0.00000000       0.00103621
Ar       0.00000000       0.00000000       5.94040404       0.00000000       0.00000000      -0.00103621
2
Properties=species:S:1:pos:R:3:forces:R:3 energy=-9.631814226387089 pbc="F F F"
Ar       0.00000000       0.00000000       0.00000000       0.00000000       0.00000000       0.00076630
Ar       0.00000000       0.00000000       6.00000000       0.00000000       0.00000000      -0.00076630
