2
Properties=species:S:1:pos:R:3:forces:R:3 energy=24352.385899989036 pbc="F F F"
As       0.00000000       0.00000000       0.00000000       0.00000000       0.00000000 -501243.40625000
As       0.00000000       0.00000000       0.10000000       0.00000000       0.00000000  501243.40625000
2
Properties=species:S:1:pos:R:3:forces:R:3 energy=9291.985509364034 pbc="F F F"
As       0.00000000       0.00000000       0.00000000       0.00000000       0.00000000 -115230.07031250
As       0.00000000       0.00000000       0.15959596       0.00000000       0.00000000  115230.07031250
2
Properties=species:S:1:pos:R:3:forces:R:3 energy=5265.339513270284 pbc="F F F"
As       0.00000000       0.00000000       0.00000000       0.00000000       0.00000000  -36911.91796875
As       0.00000000       0.00000000       0.21919192       0.00000000       0.00000000   36911.91796875
2
Properties=species:S:1:pos:R:3:forces:R:3 energy=3894.1861929577844 pbc="F F F"
As       0.00000000       0.00000000       0.00000000       0.00000000       0.00000000  -12988.95507812
As       0.00000000       0.00000000       0.27878788       0.00000000       0.00000000   12988.95507812
2
Properties=species:S:1:pos:R:3:forces:R:3 energy=3466.1615347554516 pbc="F F F"
As       0.00000000       0.00000000       0.00000000       0.00000000       0.00000000   -2523.87963867
As       0.00000000       0.00000000       0.33838384       0.00000000       0.00000000    2523.87963867
2
Properties=species:S:1:pos:R:3:forces:R:3 energy=3040.8905386624933 pbc="F F F"
As       0.00000000       0.00000000       0.00000000       0.00000000       0.00000000  -36151.67968750
As       0.00000000       0.00000000       0.39797980       0.00000000       0.00000000   36151.67968750
2
Properties=species:S:1:pos:R:3:forces:R:3 energy=3408.602696867202 pbc="F F F"
As       0.00000000       0.00000000       0.00000000       0.00000000       0.00000000   -1216.77062988
As       0.00000000       0.00000000       0.45757576       0.00000000       0.00000000    1216.77062988
2
Properties=species:S:1:pos:R:3:forces:R:3 energy=1559.0535025336408 pbc="F F F"
As       0.00000000       0.00000000       0.00000000       0.00000000       0.00000000  -53498.23046875
As       0.00000000       0.00000000       0.51717172       0.00000000       0.00000000   53498.23046875
2
Properties=species:S:1:pos:R:3:forces:R:3 energy=413.5719351563719 pbc="F F F"
As       0.00000000       0.00000000       0.00000000       0.00000000       0.00000000  -16262.12207031
As       0.00000000       0.00000000       0.57676768       0.00000000       0.00000000   16262.12207031
2
Properties=species:S:1:pos:R:3:forces:R:3 energy=-239.04540492359914 pbc="F F F"
As       0.00000000       0.00000000       0.00000000       0.00000000       0.00000000    2370.52221680
As       0.00000000       0.00000000       0.63636364       0.00000000       0.00000000   -2370.52221680
2
Properties=species:S:1:pos:R:3:forces:R:3 energy=-107.80578088590644 pbc="F F F"
As       0.00000000       0.00000000       0.00000000       0.00000000       0.00000000    2129.44873047
As       0.00000000       0.00000000       0.69595960       0.00000000       0.00000000   -2129.44873047
2
Properties=species:S:1:pos:R:3:forces:R:3 energy=-3.379120326011959 pbc="F F F"
As       0.00000000       0.00000000       0.00000000       0.00000000       0.00000000    1249.63208008
As       0.00000000       0.00000000       0.75555556       0.00000000       0.00000000   -1249.63208008
2
Properties=species:S:1:pos:R:3:forces:R:3 energy=66.33281474900123 pbc="F F F"
As       0.00000000       0.00000000       0.00000000       0.00000000       0.00000000     376.56646729
As       0.00000000       0.00000000       0.81515152       0.00000000       0.00000000    -376.56646729
2
Properties=species:S:1:pos:R:3:forces:R:3 energy=78.20430527186636 pbc="F F F"
As       0.00000000       0.00000000       0.00000000       0.00000000       0.00000000    -217.28857422
As       0.00000000       0.00000000       0.87474747       0.00000000       0.00000000     217.28857422
2
Properties=species:S:1:pos:R:3:forces:R:3 energy=64.09883658601476 pbc="F F F"
As       0.00000000       0.00000000       0.00000000       0.00000000       0.00000000    -107.01523590
As       0.00000000       0.00000000       0.93434343       0.00000000       0.00000000     107.01523590
2
Properties=species:S:1:pos:R:3:forces:R:3 energy=58.38871170523136 pbc="F F F"
As       0.00000000       0.00000000       0.00000000       0.00000000       0.00000000    -159.31808472
As       0.00000000       0.00000000       0.99393939       0.00000000       0.00000000     159.31808472
2
Properties=species:S:1:pos:R:3:forces:R:3 energy=45.76043881456273 pbc="F F F"
As       0.00000000       0.00000000       0.00000000       0.00000000       0.00000000    -223.28660583
As       0.00000000       0.00000000       1.05353535       0.00000000       0.00000000     223.28660583
2
Properties=species:S:1:pos:R:3:forces:R:3 energy=32.91955381218424 pbc="F F F"
As       0.00000000       0.00000000       0.00000000       0.00000000       0.00000000    -209.16635132
As       0.00000000       0.00000000       1.11313131       0.00000000       0.00000000     209.16635132
2
Properties=species:S:1:pos:R:3:forces:R:3 energy=21.11670520375862 pbc="F F F"
As       0.00000000       0.00000000       0.00000000       0.00000000       0.00000000    -182.94120789
As       0.00000000       0.00000000       1.17272727       0.00000000       0.00000000     182.94120789
2
Properties=species:S:1:pos:R:3:forces:R:3 energy=11.15383392309374 pbc="F F F"
As       0.00000000       0.00000000       0.00000000       0.00000000       0.00000000    -152.78070068
As       0.00000000       0.00000000       1.23232323       0.00000000       0.00000000     152.78070068
2
Properties=species:S:1:pos:R:3:forces:R:3 energy=2.8086556658442903 pbc="F F F"
As       0.00000000       0.00000000       0.00000000       0.00000000       0.00000000    -127.23212433
As       0.00000000       0.00000000       1.29191919       0.00000000       0.00000000     127.23212433
2
Properties=species:S:1:pos:R:3:forces:R:3 energy=-3.997213954732508 pbc="F F F"
As       0.00000000       0.00000000       0.00000000       0.00000000       0.00000000    -101.54075623
As       0.00000000       0.00000000       1.35151515       0.00000000       0.00000000     101.54075623
2
Properties=species:S:1:pos:R:3:forces:R:3 energy=-9.38925747408209 pbc="F F F"
As       0.00000000       0.00000000       0.00000000       0.00000000       0.00000000     -80.30356598
As       0.00000000       0.00000000       1.41111111       0.00000000       0.00000000      80.30356598
2
Properties=species:S:1:pos:R:3:forces:R:3 energy=-13.658033689783872 pbc="F F F"
As       0.00000000       0.00000000       0.00000000       0.00000000       0.00000000     -63.56904602
As       0.00000000       0.00000000       1.47070707       0.00000000       0.00000000      63.56904602
2
Properties=species:S:1:pos:R:3:forces:R:3 energy=-17.031218014422524 pbc="F F F"
As       0.00000000       0.00000000       0.00000000       0.00000000       0.00000000     -50.15227890
As       0.00000000       0.00000000       1.53030303       0.00000000       0.00000000      50.15227890
2
Properties=species:S:1:pos:R:3:forces:R:3 energy=-19.698279753783208 pbc="F F F"
As       0.00000000       0.00000000       0.00000000       0.00000000       0.00000000     -39.86529541
As       0.00000000       0.00000000       1.58989899       0.00000000       0.00000000      39.86529541
2
Properties=species:S:1:pos:R:3:forces:R:3 energy=-21.836036774921364 pbc="F F F"
As       0.00000000       0.00000000       0.00000000       0.00000000       0.00000000     -32.22763824
As       0.00000000       0.00000000       1.64949495       0.00000000       0.00000000      32.22763824
2
Properties=species:S:1:pos:R:3:forces:R:3 energy=-23.569611110927585 pbc="F F F"
As       0.00000000       0.00000000       0.00000000       0.00000000       0.00000000     -26.11848831
As       0.00000000       0.00000000       1.70909091       0.00000000       0.00000000      26.11848831
2
Properties=species:S:1:pos:R:3:forces:R:3 energy=-24.96287029038186 pbc="F F F"
As       0.00000000       0.00000000       0.00000000       0.00000000       0.00000000     -20.71978951
As       0.00000000       0.00000000       1.76868687       0.00000000       0.00000000      20.71978951
2
Properties=species:S:1:pos:R:3:forces:R:3 energy=-26.04785009577945 pbc="F F F"
As       0.00000000       0.00000000       0.00000000       0.00000000       0.00000000     -15.76612282
As       0.00000000       0.00000000       1.82828283       0.00000000       0.00000000      15.76612282
2
Properties=species:S:1:pos:R:3:forces:R:3 energy=-26.85243591740669 pbc="F F F"
As       0.00000000       0.00000000       0.00000000       0.00000000       0.00000000     -11.33633995
As       0.00000000       0.00000000       1.88787879       0.00000000       0.00000000      11.33633995
2
Properties=species:S:1:pos:R:3:forces:R:3 energy=-27.412493485102015 pbc="F F F"
As       0.00000000       0.00000000       0.00000000       0.00000000       0.00000000      -7.57896328
As       0.00000000       0.00000000       1.94747475       0.00000000       0.00000000       7.57896328
2
Properties=species:S:1:pos:R:3:forces:R:3 energy=-27.769864245634807 pbc="F F F"
As       0.00000000       0.00000000       0.00000000       0.00000000       0.00000000      -4.52402687
As       0.00000000       0.00000000       2.00707071       0.00000000       0.00000000       4.52402687
2
Properties=species:S:1:pos:R:3:forces:R:3 energy=-27.96310137673149 pbc="F F F"
As       0.00000000       0.00000000       0.00000000       0.00000000       0.00000000      -2.03997898
As       0.00000000       0.00000000       2.06666667       0.00000000       0.00000000       2.03997898
2
Properties=species:S:1:pos:R:3:forces:R:3 energy=-28.020349651461398 pbc="F F F"
As       0.00000000       0.00000000       0.00000000       0.00000000       0.00000000       0.07458226
As       0.00000000       0.00000000       2.12626263       0.00000000       0.00000000      -0.07458226
2
Properties=species:S:1:pos:R:3:forces:R:3 energy=-27.957930190302974 pbc="F F F"
As       0.00000000       0.00000000       0.00000000       0.00000000       0.00000000       1.99479270
As       0.00000000       0.00000000       2.18585859       0.00000000       0.00000000      -1.99479270
2
Properties=species:S:1:pos:R:3:forces:R:3 energy=-27.786737709250186 pbc="F F F"
As       0.00000000       0.00000000       0.00000000       0.00000000       0.00000000       3.69609332
As       0.00000000       0.00000000       2.24545455       0.00000000       0.00000000      -3.69609332
2
Properties=species:S:1:pos:R:3:forces:R:3 energy=-27.52719794699906 pbc="F F F"
As       0.00000000       0.00000000       0.00000000       0.00000000       0.00000000       4.90392923
As       0.00000000       0.00000000       2.30505051       0.00000000       0.00000000      -4.90392923
2
Properties=species:S:1:pos:R:3:forces:R:3 energy=-27.21738154979036 pbc="F F F"
As       0.00000000       0.00000000       0.00000000       0.00000000       0.00000000       5.36061430
As       0.00000000       0.00000000       2.36464646       0.00000000       0.00000000      -5.36061430
2
Properties=species:S:1:pos:R:3:forces:R:3 energy=-26.902612810715432 pbc="F F F"
As       0.00000000       0.00000000       0.00000000       0.00000000       0.00000000       5.10276079
As       0.00000000       0.00000000       2.42424242       0.00000000       0.00000000      -5.10276079
2
Properties=species:S:1:pos:R:3:forces:R:3 energy=-26.618322644313047 pbc="F F F"
As       0.00000000       0.00000000       0.00000000       0.00000000       0.00000000       4.38208294
As       0.00000000       0.00000000       2.48383838       0.00000000       0.00000000      -4.38208294
2
Properties=species:S:1:pos:R:3:forces:R:3 energy=-26.384524878794238 pbc="F F F"
As       0.00000000       0.00000000       0.00000000       0.00000000       0.00000000       3.45283747
As       0.00000000       0.00000000       2.54343434       0.00000000       0.00000000      -3.45283747
2
Properties=species:S:1:pos:R:3:forces:R:3 energy=-26.204454443172562 pbc="F F F"
As       0.00000000       0.00000000       0.00000000       0.00000000       0.00000000       2.64046621
As       0.00000000       0.00000000       2.60303030       0.00000000       0.00000000      -2.64046621
2
Properties=species:S:1:pos:R:3:forces:R:3 energy=-26.06126960345162 pbc="F F F"
As       0.00000000       0.00000000       0.00000000       0.00000000       0.00000000       2.24744844
As       0.00000000       0.00000000       2.66262626       0.00000000       0.00000000      -2.24744844
2
Properties=species:S:1:pos:R:3:forces:R:3 energy=-25.927033778210728 pbc="F F F"
As       0.00000000       0.00000000       0.00000000       0.00000000       0.00000000       2.32812572
As       0.00000000       0.00000000       2.72222222       0.00000000       0.00000000      -2.32812572
2
Properties=species:S:1:pos:R:3:forces:R:3 energy=-25.777188812853154 pbc="F F F"
As       0.00000000       0.00000000       0.00000000       0.00000000       0.00000000       2.73810720
As       0.00000000       0.00000000       2.78181818       0.00000000       0.00000000      -2.73810720
2
Properties=species:S:1:pos:R:3:forces:R:3 energy=-25.598606341680302 pbc="F F F"
As       0.00000000       0.00000000       0.00000000       0.00000000       0.00000000       3.25153160
As       0.00000000       0.00000000       2.84141414       0.00000000       0.00000000      -3.25153160
2
Properties=species:S:1:pos:R:3:forces:R:3 energy=-25.392269932678296 pbc="F F F"
As       0.00000000       0.00000000       0.00000000       0.00000000       0.00000000       3.63578081
As       0.00000000       0.00000000       2.90101010       0.00000000       0.00000000      -3.63578081
2
Properties=species:S:1:pos:R:3:forces:R:3 energy=-25.170472513670486 pbc="F F F"
As       0.00000000       0.00000000       0.00000000       0.00000000       0.00000000       3.76338410
As       0.00000000       0.00000000       2.96060606       0.00000000       0.00000000      -3.76338410
2
Properties=species:S:1:pos:R:3:forces:R:3 energy=-24.94818407972013 pbc="F F F"
As       0.00000000       0.00000000       0.00000000       0.00000000       0.00000000       3.66776228
As       0.00000000       0.00000000       3.02020202       0.00000000       0.00000000      -3.66776228
2
Properties=species:S:1:pos:R:3:forces:R:3 energy=-24.735726614956096 pbc="F F F"
As       0.00000000       0.00000000       0.00000000       0.00000000       0.00000000       3.44821787
As       0.00000000       0.00000000       3.07979798       0.00000000       0.00000000      -3.44821787
2
Properties=species:S:1:pos:R:3:forces:R:3 energy=-24.53847474305595 pbc="F F F"
As       0.00000000       0.00000000       0.00000000       0.00000000       0.00000000       3.16209579
As       0.00000000       0.00000000       3.13939394       0.00000000       0.00000000      -3.16209579
2
Properties=species:S:1:pos:R:3:forces:R:3 energy=-24.359876306182855 pbc="F F F"
As       0.00000000       0.00000000       0.00000000       0.00000000       0.00000000       2.82350659
As       0.00000000       0.00000000       3.19898990       0.00000000       0.00000000      -2.82350659
2
Properties=species:S:1:pos:R:3:forces:R:3 energy=-24.202692182139184 pbc="F F F"
As       0.00000000       0.00000000       0.00000000       0.00000000       0.00000000       2.44738388
As       0.00000000       0.00000000       3.25858586       0.00000000       0.00000000      -2.44738388
2
Properties=species:S:1:pos:R:3:forces:R:3 energy=-24.068321429674494 pbc="F F F"
As       0.00000000       0.00000000       0.00000000       0.00000000       0.00000000       2.06362987
As       0.00000000       0.00000000       3.31818182       0.00000000       0.00000000      -2.06362987
2
Properties=species:S:1:pos:R:3:forces:R:3 energy=-23.9562311859128 pbc="F F F"
As       0.00000000       0.00000000       0.00000000       0.00000000       0.00000000       1.70435750
As       0.00000000       0.00000000       3.37777778       0.00000000       0.00000000      -1.70435750
2
Properties=species:S:1:pos:R:3:forces:R:3 energy=-23.864243475391547 pbc="F F F"
As       0.00000000       0.00000000       0.00000000       0.00000000       0.00000000       1.39160240
As       0.00000000       0.00000000       3.43737374       0.00000000       0.00000000      -1.39160240
2
Properties=species:S:1:pos:R:3:forces:R:3 energy=-23.78925434622849 pbc="F F F"
As       0.00000000       0.00000000       0.00000000       0.00000000       0.00000000       1.13430202
As       0.00000000       0.00000000       3.49696970       0.00000000       0.00000000      -1.13430202
2
Properties=species:S:1:pos:R:3:forces:R:3 energy=-23.72797232448916 pbc="F F F"
As       0.00000000       0.00000000       0.00000000       0.00000000       0.00000000       0.93060333
As       0.00000000       0.00000000       3.55656566       0.00000000       0.00000000      -0.93060333
2
Properties=species:S:1:pos:R:3:forces:R:3 energy=-23.677445081580082 pbc="F F F"
As       0.00000000       0.00000000       0.00000000       0.00000000       0.00000000       0.77162600
As       0.00000000       0.00000000       3.61616162       0.00000000       0.00000000      -0.77162600
2
Properties=species:S:1:pos:R:3:forces:R:3 energy=-23.635349520719476 pbc="F F F"
As       0.00000000       0.00000000       0.00000000       0.00000000       0.00000000       0.64553142
As       0.00000000       0.00000000       3.67575758       0.00000000       0.00000000      -0.64553142
2
Properties=species:S:1:pos:R:3:forces:R:3 energy=-23.60007385470097 pbc="F F F"
As       0.00000000       0.00000000       0.00000000       0.00000000       0.00000000       0.54108202
As       0.00000000       0.00000000       3.73535354       0.00000000       0.00000000      -0.54108202
2
Properties=species:S:1:pos:R:3:forces:R:3 energy=-23.57059565279053 pbc="F F F"
As       0.00000000       0.00000000       0.00000000       0.00000000       0.00000000       0.44993925
As       0.00000000       0.00000000       3.79494949       0.00000000       0.00000000      -0.44993925
2
Properties=species:S:1:pos:R:3:forces:R:3 energy=-23.54627771561694 pbc="F F F"
As       0.00000000       0.00000000       0.00000000       0.00000000       0.00000000       0.36734897
As       0.00000000       0.00000000       3.85454545       0.00000000       0.00000000      -0.36734897
2
Properties=species:S:1:pos:R:3:forces:R:3 energy=-23.526675501068045 pbc="F F F"
As       0.00000000       0.00000000       0.00000000       0.00000000       0.00000000       0.29156467
As       0.00000000       0.00000000       3.91414141       0.00000000       0.00000000      -0.29156467
2
Properties=species:S:1:pos:R:3:forces:R:3 energy=-23.511390240231055 pbc="F F F"
As       0.00000000       0.00000000       0.00000000       0.00000000       0.00000000       0.22261727
As       0.00000000       0.00000000       3.97373737       0.00000000       0.00000000      -0.22261727
2
Properties=species:S:1:pos:R:3:forces:R:3 energy=-23.499994591977554 pbc="F F F"
As       0.00000000       0.00000000       0.00000000       0.00000000       0.00000000       0.16109711
As       0.00000000       0.00000000       4.03333333       0.00000000       0.00000000      -0.16109711
2
Properties=species:S:1:pos:R:3:forces:R:3 energy=-23.492034534473028 pbc="F F F"
As       0.00000000       0.00000000       0.00000000       0.00000000       0.00000000       0.10725297
As       0.00000000       0.00000000       4.09292929       0.00000000       0.00000000      -0.10725297
2
Properties=species:S:1:pos:R:3:forces:R:3 energy=-23.487065626975628 pbc="F F F"
As       0.00000000       0.00000000       0.00000000       0.00000000       0.00000000       0.06062740
As       0.00000000       0.00000000       4.15252525       0.00000000       0.00000000      -0.06062740
2
Properties=species:S:1:pos:R:3:forces:R:3 energy=-23.484687337359844 pbc="F F F"
As       0.00000000       0.00000000       0.00000000       0.00000000       0.00000000       0.02009936
As       0.00000000       0.00000000       4.21212121       0.00000000       0.00000000      -0.02009936
2
Properties=species:S:1:pos:R:3:forces:R:3 energy=-23.484579291243985 pbc="F F F"
As       0.00000000       0.00000000       0.00000000       0.00000000       0.00000000      -0.01578063
As       0.00000000       0.00000000       4.27171717       0.00000000       0.00000000       0.01578063
2
Properties=species:S:1:pos:R:3:forces:R:3 energy=-23.48650318409054 pbc="F F F"
As       0.00000000       0.00000000       0.00000000       0.00000000       0.00000000      -0.04835864
As       0.00000000       0.00000000       4.33131313       0.00000000       0.00000000       0.04835864
2
Properties=species:S:1:pos:R:3:forces:R:3 energy=-23.490295156563405 pbc="F F F"
As       0.00000000       0.00000000       0.00000000       0.00000000       0.00000000      -0.07852430
As       0.00000000       0.00000000       4.39090909       0.00000000       0.00000000       0.07852430
2
Properties=species:S:1:pos:R:3:forces:R:3 energy=-23.495820016576747 pbc="F F F"
As       0.00000000       0.00000000       0.00000000       0.00000000       0.00000000      -0.10650714
As       0.00000000       0.00000000       4.45050505       0.00000000       0.00000000       0.10650714
2
Properties=species:S:1:pos:R:3:forces:R:3 energy=-23.502938822287835 pbc="F F F"
As       0.00000000       0.00000000       0.00000000       0.00000000       0.00000000      -0.13186853
As       0.00000000       0.00000000       4.51010101       0.00000000       0.00000000       0.13186853
2
Properties=species:S:1:pos:R:3:forces:R:3 energy=-23.511466895084517 pbc="F F F"
As       0.00000000       0.00000000       0.00000000       0.00000000       0.00000000      -0.15366718
As       0.00000000       0.00000000       4.56969697       0.00000000       0.00000000       0.15366718
2
Properties=species:S:1:pos:R:3:forces:R:3 energy=-23.52116051882997 pbc="F F F"
As       0.00000000       0.00000000       0.00000000       0.00000000       0.00000000      -0.17073597
As       0.00000000       0.00000000       4.62929293       0.00000000       0.00000000       0.17073597
2
Properties=species:S:1:pos:R:3:forces:R:3 energy=-23.531701624052808 pbc="F F F"
As       0.00000000       0.00000000       0.00000000       0.00000000       0.00000000      -0.18202569
As       0.00000000       0.00000000       4.68888889       0.00000000       0.00000000       0.18202569
2
Properties=species:S:1:pos:R:3:forces:R:3 energy=-23.542728337995406 pbc="F F F"
As       0.00000000       0.00000000       0.00000000       0.00000000       0.00000000      -0.18695928
As       0.00000000       0.00000000       4.74848485       0.00000000       0.00000000       0.18695928
2
Properties=species:S:1:pos:R:3:forces:R:3 energy=-23.553861649480893 pbc="F F F"
As       0.00000000       0.00000000       0.00000000       0.00000000       0.00000000      -0.18569084
As       0.00000000       0.00000000       4.80808081       0.00000000       0.00000000       0.18569084
2
Properties=species:S:1:pos:R:3:forces:R:3 energy=-23.564758843977213 pbc="F F F"
As       0.00000000       0.00000000       0.00000000       0.00000000       0.00000000      -0.17922121
As       0.00000000       0.00000000       4.86767677       0.00000000       0.00000000       0.17922121
2
Properties=species:S:1:pos:R:3:forces:R:3 energy=-23.57515543992448 pbc="F F F"
As       0.00000000       0.00000000       0.00000000       0.00000000       0.00000000      -0.16929734
As       0.00000000       0.00000000       4.92727273       0.00000000       0.00000000       0.16929734
2
Properties=species:S:1:pos:R:3:forces:R:3 energy=-23.584910952430867 pbc="F F F"
As       0.00000000       0.00000000       0.00000000       0.00000000       0.00000000      -0.15809366
As       0.00000000       0.00000000       4.98686869       0.00000000       0.00000000       0.15809366
2
Properties=species:S:1:pos:R:3:forces:R:3 energy=-23.594014618486344 pbc="F F F"
As       0.00000000       0.00000000       0.00000000       0.00000000       0.00000000      -0.14769965
As       0.00000000       0.00000000       5.04646465       0.00000000       0.00000000       0.14769965
2
Properties=species:S:1:pos:R:3:forces:R:3 energy=-23.60255866675934 pbc="F F F"
As       0.00000000       0.00000000       0.00000000       0.00000000       0.00000000      -0.13947147
As       0.00000000       0.00000000       5.10606061       0.00000000       0.00000000       0.13947147
2
Properties=species:S:1:pos:R:3:forces:R:3 energy=-23.610683018345604 pbc="F F F"
As       0.00000000       0.00000000       0.00000000       0.00000000       0.00000000      -0.13338608
As       0.00000000       0.00000000       5.16565657       0.00000000       0.00000000       0.13338608
2
Properties=species:S:1:pos:R:3:forces:R:3 energy=-23.618464635996904 pbc="F F F"
As       0.00000000       0.00000000       0.00000000       0.00000000       0.00000000      -0.12754206
As       0.00000000       0.00000000       5.22525253       0.00000000       0.00000000       0.12754206
2
Properties=species:S:1:pos:R:3:forces:R:3 energy=-23.625818335260483 pbc="F F F"
As       0.00000000       0.00000000       0.00000000       0.00000000       0.00000000      -0.11838324
As       0.00000000       0.00000000       5.28484848       0.00000000       0.00000000       0.11838324
2
Properties=species:S:1:pos:R:3:forces:R:3 energy=-23.632447187870916 pbc="F F F"
As       0.00000000       0.00000000       0.00000000       0.00000000       0.00000000      -0.10304087
As       0.00000000       0.00000000       5.34444444       0.00000000       0.00000000       0.10304087
2
Properties=species:S:1:pos:R:3:forces:R:3 energy=-23.638056138857326 pbc="F F F"
As       0.00000000       0.00000000       0.00000000       0.00000000       0.00000000      -0.08590838
As       0.00000000       0.00000000       5.40404040       0.00000000       0.00000000       0.08590838
2
Properties=species:S:1:pos:R:3:forces:R:3 energy=-23.642962350186327 pbc="F F F"
As       0.00000000       0.00000000       0.00000000       0.00000000       0.00000000      -0.08211412
As       0.00000000       0.00000000       5.46363636       0.00000000       0.00000000       0.08211412
2
Properties=species:S:1:pos:R:3:forces:R:3 energy=-23.648146694819346 pbc="F F F"
As       0.00000000       0.00000000       0.00000000       0.00000000       0.00000000      -0.09210027
As       0.00000000       0.00000000       5.52323232       0.00000000       0.00000000       0.09210027
2
Properties=species:S:1:pos:R:3:forces:R:3 energy=-23.65360199240065 pbc="F F F"
As       0.00000000       0.00000000       0.00000000       0.00000000       0.00000000      -0.08657530
As       0.00000000       0.00000000       5.58282828       0.00000000       0.00000000       0.08657530
2
Properties=species:S:1:pos:R:3:forces:R:3 energy=-23.658106026454476 pbc="F F F"
As       0.00000000       0.00000000       0.00000000       0.00000000       0.00000000      -0.06408685
As       0.00000000       0.00000000       5.64242424       0.00000000       0.00000000       0.06408685
2
Properties=species:S:1:pos:R:3:forces:R:3 energy=-23.661502736913707 pbc="F F F"
As       0.00000000       0.00000000       0.00000000       0.00000000       0.00000000      -0.05410065
As       0.00000000       0.00000000       5.70202020       0.00000000       0.00000000       0.05410065
2
Properties=species:S:1:pos:R:3:forces:R:3 energy=-23.665024561642824 pbc="F F F"
As       0.00000000       0.00000000       0.00000000       0.00000000       0.00000000      -0.06593705
As       0.00000000       0.00000000       5.76161616       0.00000000       0.00000000       0.06593705
2
Properties=species:S:1:pos:R:3:forces:R:3 energy=-23.66912568839103 pbc="F F F"
As       0.00000000       0.00000000       0.00000000       0.00000000       0.00000000      -0.06663240
As       0.00000000       0.00000000       5.82121212       0.00000000       0.00000000       0.06663240
2
Properties=species:S:1:pos:R:3:forces:R:3 energy=-23.672373886424523 pbc="F F F"
As       0.00000000       0.00000000       0.00000000       0.00000000       0.00000000      -0.03969303
As       0.00000000       0.00000000       5.88080808       0.00000000       0.00000000       0.03969303
2
Properties=species:S:1:pos:R:3:forces:R:3 energy=-23.67380418067905 pbc="F F F"
As       0.00000000       0.00000000       0.00000000       0.00000000       0.00000000      -0.00946738
As       0.00000000       0.00000000       5.94040404       0.00000000       0.00000000       0.00946738
2
Properties=species:S:1:pos:R:3:forces:R:3 energy=-23.673885873952948 pbc="F F F"
As       0.00000000       0.00000000       0.00000000       0.00000000       0.00000000       0.00261428
As       0.00000000       0.00000000       6.00000000       0.00000000       0.00000000      -0.00261428
