2
Properties=species:S:1:pos:R:3:forces:R:3 energy=7373.376622645284 pbc="F F F"
As       0.00000000       0.00000000       0.00000000       0.00000000       0.00000000  -76056.33593750
As       0.00000000       0.00000000       0.18000000       0.00000000       0.00000000   76056.33593750
2
Properties=species:S:1:pos:R:3:forces:R:3 energy=4652.423985926534 pbc="F F F"
As       0.00000000       0.00000000       0.00000000       0.00000000       0.00000000  -26286.12890625
As       0.00000000       0.00000000       0.23878788       0.00000000       0.00000000   26286.12890625
2
Properties=species:S:1:pos:R:3:forces:R:3 energy=3689.9491324117016 pbc="F F F"
As       0.00000000       0.00000000       0.00000000       0.00000000       0.00000000   -8909.02636719
As       0.00000000       0.00000000       0.29757576       0.00000000       0.00000000    8909.02636719
2
Properties=species:S:1:pos:R:3:forces:R:3 energy=3439.2833609273266 pbc="F F F"
As       0.00000000       0.00000000       0.00000000       0.00000000       0.00000000    -553.49792480
As       0.00000000       0.00000000       0.35636364       0.00000000       0.00000000     553.49792480
2
Properties=species:S:1:pos:R:3:forces:R:3 energy=2634.7208609281183 pbc="F F F"
As       0.00000000       0.00000000       0.00000000       0.00000000       0.00000000   34529.50781250
As       0.00000000       0.00000000       0.41515152       0.00000000       0.00000000  -34529.50781250
2
Properties=species:S:1:pos:R:3:forces:R:3 energy=3240.052403898452 pbc="F F F"
As       0.00000000       0.00000000       0.00000000       0.00000000       0.00000000  -21758.70898438
As       0.00000000       0.00000000       0.47393939       0.00000000       0.00000000   21758.70898438
2
Properties=species:S:1:pos:R:3:forces:R:3 energy=1301.5310415977247 pbc="F F F"
As       0.00000000       0.00000000       0.00000000       0.00000000       0.00000000  -11992.13671875
As       0.00000000       0.00000000       0.53272727       0.00000000       0.00000000   11992.13671875
2
Properties=species:S:1:pos:R:3:forces:R:3 energy=170.5556692888152 pbc="F F F"
As       0.00000000       0.00000000       0.00000000       0.00000000       0.00000000  -16345.52441406
As       0.00000000       0.00000000       0.59151515       0.00000000       0.00000000   16345.52441406
2
Properties=species:S:1:pos:R:3:forces:R:3 energy=-208.38982630715006 pbc="F F F"
As       0.00000000       0.00000000       0.00000000       0.00000000       0.00000000    2090.76000977
As       0.00000000       0.00000000       0.65030303       0.00000000       0.00000000   -2090.76000977
2
Properties=species:S:1:pos:R:3:forces:R:3 energy=-80.9478707249047 pbc="F F F"
As       0.00000000       0.00000000       0.00000000       0.00000000       0.00000000    1981.46032715
As       0.00000000       0.00000000       0.70909091       0.00000000       0.00000000   -1981.46032715
2
Properties=species:S:1:pos:R:3:forces:R:3 energy=11.949525384916532 pbc="F F F"
As       0.00000000       0.00000000       0.00000000       0.00000000       0.00000000    1568.53796387
As       0.00000000       0.00000000       0.76787879       0.00000000       0.00000000   -1568.53796387
2
Properties=species:S:1:pos:R:3:forces:R:3 energy=70.42493206490718 pbc="F F F"
As       0.00000000       0.00000000       0.00000000       0.00000000       0.00000000     328.30340576
As       0.00000000       0.00000000       0.82666667       0.00000000       0.00000000    -328.30340576
2
Properties=species:S:1:pos:R:3:forces:R:3 energy=75.74252854876335 pbc="F F F"
As       0.00000000       0.00000000       0.00000000       0.00000000       0.00000000    -252.96199036
As       0.00000000       0.00000000       0.88545455       0.00000000       0.00000000     252.96199036
2
Properties=species:S:1:pos:R:3:forces:R:3 energy=63.25306862383253 pbc="F F F"
As       0.00000000       0.00000000       0.00000000       0.00000000       0.00000000     -70.32803345
As       0.00000000       0.00000000       0.94424242       0.00000000       0.00000000      70.32803345
2
Properties=species:S:1:pos:R:3:forces:R:3 energy=56.808961660827265 pbc="F F F"
As       0.00000000       0.00000000       0.00000000       0.00000000       0.00000000    -187.60879517
As       0.00000000       0.00000000       1.00303030       0.00000000       0.00000000     187.60879517
2
Properties=species:S:1:pos:R:3:forces:R:3 energy=43.92039671931185 pbc="F F F"
As       0.00000000       0.00000000       0.00000000       0.00000000       0.00000000    -220.98417664
As       0.00000000       0.00000000       1.06181818       0.00000000       0.00000000     220.98417664
2
Properties=species:S:1:pos:R:3:forces:R:3 energy=31.36216552869493 pbc="F F F"
As       0.00000000       0.00000000       0.00000000       0.00000000       0.00000000    -207.45611572
As       0.00000000       0.00000000       1.12060606       0.00000000       0.00000000     207.45611572
2
Properties=species:S:1:pos:R:3:forces:R:3 energy=19.9095366523755 pbc="F F F"
As       0.00000000       0.00000000       0.00000000       0.00000000       0.00000000    -179.18597412
As       0.00000000       0.00000000       1.17939394       0.00000000       0.00000000     179.18597412
2
Properties=species:S:1:pos:R:3:forces:R:3 energy=10.26625308160602 pbc="F F F"
As       0.00000000       0.00000000       0.00000000       0.00000000       0.00000000    -150.22569275
As       0.00000000       0.00000000       1.23818182       0.00000000       0.00000000     150.22569275
2
Properties=species:S:1:pos:R:3:forces:R:3 energy=2.171677548108449 pbc="F F F"
As       0.00000000       0.00000000       0.00000000       0.00000000       0.00000000    -125.01185608
As       0.00000000       0.00000000       1.29696970       0.00000000       0.00000000     125.01185608
2
Properties=species:S:1:pos:R:3:forces:R:3 energy=-4.424383719691152 pbc="F F F"
As       0.00000000       0.00000000       0.00000000       0.00000000       0.00000000     -99.84816742
As       0.00000000       0.00000000       1.35575758       0.00000000       0.00000000      99.84816742
2
Properties=species:S:1:pos:R:3:forces:R:3 energy=-9.66320324764669 pbc="F F F"
As       0.00000000       0.00000000       0.00000000       0.00000000       0.00000000     -79.23347473
As       0.00000000       0.00000000       1.41454545       0.00000000       0.00000000      79.23347473
2
Properties=species:S:1:pos:R:3:forces:R:3 energy=-13.824108409329357 pbc="F F F"
As       0.00000000       0.00000000       0.00000000       0.00000000       0.00000000     -62.91201782
As       0.00000000       0.00000000       1.47333333       0.00000000       0.00000000      62.91201782
2
Properties=species:S:1:pos:R:3:forces:R:3 energy=-17.12208216743068 pbc="F F F"
As       0.00000000       0.00000000       0.00000000       0.00000000       0.00000000     -49.79210663
As       0.00000000       0.00000000       1.53212121       0.00000000       0.00000000      49.79210663
2
Properties=species:S:1:pos:R:3:forces:R:3 energy=-19.738463754980415 pbc="F F F"
As       0.00000000       0.00000000       0.00000000       0.00000000       0.00000000     -39.71662521
As       0.00000000       0.00000000       1.59090909       0.00000000       0.00000000      39.71662521
2
Properties=species:S:1:pos:R:3:forces:R:3 energy=-21.842537014310256 pbc="F F F"
As       0.00000000       0.00000000       0.00000000       0.00000000       0.00000000     -32.20499420
As       0.00000000       0.00000000       1.64969697       0.00000000       0.00000000      32.20499420
2
Properties=species:S:1:pos:R:3:forces:R:3 energy=-23.55376678246588 pbc="F F F"
As       0.00000000       0.00000000       0.00000000       0.00000000       0.00000000     -26.17615700
As       0.00000000       0.00000000       1.70848485       0.00000000       0.00000000      26.17615700
2
Properties=species:S:1:pos:R:3:forces:R:3 energy=-24.933478093883643 pbc="F F F"
As       0.00000000       0.00000000       0.00000000       0.00000000       0.00000000     -20.84260941
As       0.00000000       0.00000000       1.76727273       0.00000000       0.00000000      20.84260941
2
Properties=species:S:1:pos:R:3:forces:R:3 energy=-26.01261764528489 pbc="F F F"
As       0.00000000       0.00000000       0.00000000       0.00000000       0.00000000     -15.94243431
As       0.00000000       0.00000000       1.82606061       0.00000000       0.00000000      15.94243431
2
Properties=species:S:1:pos:R:3:forces:R:3 energy=-26.817762364411056 pbc="F F F"
As       0.00000000       0.00000000       0.00000000       0.00000000       0.00000000     -11.54636765
As       0.00000000       0.00000000       1.88484848       0.00000000       0.00000000      11.54636765
2
Properties=species:S:1:pos:R:3:forces:R:3 energy=-27.382981280863213 pbc="F F F"
As       0.00000000       0.00000000       0.00000000       0.00000000       0.00000000      -7.79916811
As       0.00000000       0.00000000       1.94363636       0.00000000       0.00000000       7.79916811
2
Properties=species:S:1:pos:R:3:forces:R:3 energy=-27.748343916114777 pbc="F F F"
As       0.00000000       0.00000000       0.00000000       0.00000000       0.00000000      -4.73931074
As       0.00000000       0.00000000       2.00242424       0.00000000       0.00000000       4.73931074
2
Properties=species:S:1:pos:R:3:forces:R:3 energy=-27.95140590614112 pbc="F F F"
As       0.00000000       0.00000000       0.00000000       0.00000000       0.00000000      -2.24877691
As       0.00000000       0.00000000       2.06121212       0.00000000       0.00000000       2.24877691
2
Properties=species:S:1:pos:R:3:forces:R:3 energy=-28.02015752481254 pbc="F F F"
As       0.00000000       0.00000000       0.00000000       0.00000000       0.00000000      -0.13637862
As       0.00000000       0.00000000       2.12000000       0.00000000       0.00000000       0.13637862
2
Properties=species:S:1:pos:R:3:forces:R:3 energy=-27.97125940937563 pbc="F F F"
As       0.00000000       0.00000000       0.00000000       0.00000000       0.00000000       1.77517998
As       0.00000000       0.00000000       2.17878788       0.00000000       0.00000000      -1.77517998
2
Properties=species:S:1:pos:R:3:forces:R:3 energy=-27.815060768571687 pbc="F F F"
As       0.00000000       0.00000000       0.00000000       0.00000000       0.00000000       3.49210835
As       0.00000000       0.00000000       2.23757576       0.00000000       0.00000000      -3.49210835
2
Properties=species:S:1:pos:R:3:forces:R:3 energy=-27.569233143134202 pbc="F F F"
As       0.00000000       0.00000000       0.00000000       0.00000000       0.00000000       4.77099323
As       0.00000000       0.00000000       2.29636364       0.00000000       0.00000000      -4.77099323
2
Properties=species:S:1:pos:R:3:forces:R:3 energy=-27.26820222497925 pbc="F F F"
As       0.00000000       0.00000000       0.00000000       0.00000000       0.00000000       5.34068346
As       0.00000000       0.00000000       2.35515152       0.00000000       0.00000000      -5.34068346
2
Properties=species:S:1:pos:R:3:forces:R:3 energy=-26.955638640685272 pbc="F F F"
As       0.00000000       0.00000000       0.00000000       0.00000000       0.00000000       5.18796158
As       0.00000000       0.00000000       2.41393939       0.00000000       0.00000000      -5.18796158
2
Properties=species:S:1:pos:R:3:forces:R:3 energy=-26.66789644964998 pbc="F F F"
As       0.00000000       0.00000000       0.00000000       0.00000000       0.00000000       4.54002190
As       0.00000000       0.00000000       2.47272727       0.00000000       0.00000000      -4.54002190
2
Properties=species:S:1:pos:R:3:forces:R:3 energy=-26.42679955710477 pbc="F F F"
As       0.00000000       0.00000000       0.00000000       0.00000000       0.00000000       3.64129829
As       0.00000000       0.00000000       2.53151515       0.00000000       0.00000000      -3.64129829
2
Properties=species:S:1:pos:R:3:forces:R:3 energy=-26.23896460376615 pbc="F F F"
As       0.00000000       0.00000000       0.00000000       0.00000000       0.00000000       2.78598857
As       0.00000000       0.00000000       2.59030303       0.00000000       0.00000000      -2.78598857
2
Properties=species:S:1:pos:R:3:forces:R:3 energy=-26.09196724656092 pbc="F F F"
As       0.00000000       0.00000000       0.00000000       0.00000000       0.00000000       2.29282308
As       0.00000000       0.00000000       2.64909091       0.00000000       0.00000000      -2.29282308
2
Properties=species:S:1:pos:R:3:forces:R:3 energy=-25.959991801304263 pbc="F F F"
As       0.00000000       0.00000000       0.00000000       0.00000000       0.00000000       2.27122712
As       0.00000000       0.00000000       2.70787879       0.00000000       0.00000000      -2.27122712
2
Properties=species:S:1:pos:R:3:forces:R:3 energy=-25.817724614855432 pbc="F F F"
As       0.00000000       0.00000000       0.00000000       0.00000000       0.00000000       2.61434746
As       0.00000000       0.00000000       2.76666667       0.00000000       0.00000000      -2.61434746
2
Properties=species:S:1:pos:R:3:forces:R:3 energy=-25.649442976538907 pbc="F F F"
As       0.00000000       0.00000000       0.00000000       0.00000000       0.00000000       3.11791444
As       0.00000000       0.00000000       2.82545455       0.00000000       0.00000000      -3.11791444
2
Properties=species:S:1:pos:R:3:forces:R:3 energy=-25.452553706816612 pbc="F F F"
As       0.00000000       0.00000000       0.00000000       0.00000000       0.00000000       3.55123353
As       0.00000000       0.00000000       2.88424242       0.00000000       0.00000000      -3.55123353
2
Properties=species:S:1:pos:R:3:forces:R:3 energy=-25.23655723335341 pbc="F F F"
As       0.00000000       0.00000000       0.00000000       0.00000000       0.00000000       3.75301790
As       0.00000000       0.00000000       2.94303030       0.00000000       0.00000000      -3.75301790
2
Properties=species:S:1:pos:R:3:forces:R:3 energy=-25.016062394382747 pbc="F F F"
As       0.00000000       0.00000000       0.00000000       0.00000000       0.00000000       3.71485472
As       0.00000000       0.00000000       3.00181818       0.00000000       0.00000000      -3.71485472
2
Properties=species:S:1:pos:R:3:forces:R:3 energy=-24.802677494889178 pbc="F F F"
As       0.00000000       0.00000000       0.00000000       0.00000000       0.00000000       3.52767038
As       0.00000000       0.00000000       3.06060606       0.00000000       0.00000000      -3.52767038
2
Properties=species:S:1:pos:R:3:forces:R:3 energy=-24.60274928355625 pbc="F F F"
As       0.00000000       0.00000000       0.00000000       0.00000000       0.00000000       3.26430774
As       0.00000000       0.00000000       3.11939394       0.00000000       0.00000000      -3.26430774
2
Properties=species:S:1:pos:R:3:forces:R:3 energy=-24.419922290235064 pbc="F F F"
As       0.00000000       0.00000000       0.00000000       0.00000000       0.00000000       2.94710946
As       0.00000000       0.00000000       3.17818182       0.00000000       0.00000000      -2.94710946
2
Properties=species:S:1:pos:R:3:forces:R:3 energy=-24.25710400388274 pbc="F F F"
As       0.00000000       0.00000000       0.00000000       0.00000000       0.00000000       2.58648682
As       0.00000000       0.00000000       3.23696970       0.00000000       0.00000000      -2.58648682
2
Properties=species:S:1:pos:R:3:forces:R:3 energy=-24.116198019095705 pbc="F F F"
As       0.00000000       0.00000000       0.00000000       0.00000000       0.00000000       2.20675111
As       0.00000000       0.00000000       3.29575758       0.00000000       0.00000000      -2.20675111
2
Properties=species:S:1:pos:R:3:forces:R:3 energy=-23.997388679641467 pbc="F F F"
As       0.00000000       0.00000000       0.00000000       0.00000000       0.00000000       1.83979940
As       0.00000000       0.00000000       3.35454545       0.00000000       0.00000000      -1.83979940
2
Properties=species:S:1:pos:R:3:forces:R:3 energy=-23.899118205641887 pbc="F F F"
As       0.00000000       0.00000000       0.00000000       0.00000000       0.00000000       1.51131332
As       0.00000000       0.00000000       3.41333333       0.00000000       0.00000000      -1.51131332
2
Properties=species:S:1:pos:R:3:forces:R:3 energy=-23.818668190983868 pbc="F F F"
As       0.00000000       0.00000000       0.00000000       0.00000000       0.00000000       1.23475361
As       0.00000000       0.00000000       3.47212121       0.00000000       0.00000000      -1.23475361
2
Properties=species:S:1:pos:R:3:forces:R:3 energy=-23.752878946186648 pbc="F F F"
As       0.00000000       0.00000000       0.00000000       0.00000000       0.00000000       1.01218522
As       0.00000000       0.00000000       3.53090909       0.00000000       0.00000000      -1.01218522
2
Properties=species:S:1:pos:R:3:forces:R:3 energy=-23.69872005698832 pbc="F F F"
As       0.00000000       0.00000000       0.00000000       0.00000000       0.00000000       0.83743936
As       0.00000000       0.00000000       3.58969697       0.00000000       0.00000000      -0.83743936
2
Properties=species:S:1:pos:R:3:forces:R:3 energy=-23.65368538528675 pbc="F F F"
As       0.00000000       0.00000000       0.00000000       0.00000000       0.00000000       0.69992107
As       0.00000000       0.00000000       3.64848485       0.00000000       0.00000000      -0.69992107
2
Properties=species:S:1:pos:R:3:forces:R:3 energy=-23.615922867841025 pbc="F F F"
As       0.00000000       0.00000000       0.00000000       0.00000000       0.00000000       0.58821452
As       0.00000000       0.00000000       3.70727273       0.00000000       0.00000000      -0.58821452
2
Properties=species:S:1:pos:R:3:forces:R:3 energy=-23.584207899713775 pbc="F F F"
As       0.00000000       0.00000000       0.00000000       0.00000000       0.00000000       0.49283987
As       0.00000000       0.00000000       3.76606061       0.00000000       0.00000000      -0.49283987
2
Properties=species:S:1:pos:R:3:forces:R:3 energy=-23.557779333175 pbc="F F F"
As       0.00000000       0.00000000       0.00000000       0.00000000       0.00000000       0.40760285
As       0.00000000       0.00000000       3.82484848       0.00000000       0.00000000      -0.40760285
2
Properties=species:S:1:pos:R:3:forces:R:3 energy=-23.53614493764499 pbc="F F F"
As       0.00000000       0.00000000       0.00000000       0.00000000       0.00000000       0.32952970
As       0.00000000       0.00000000       3.88363636       0.00000000       0.00000000      -0.32952970
2
Properties=species:S:1:pos:R:3:forces:R:3 energy=-23.51890785710328 pbc="F F F"
As       0.00000000       0.00000000       0.00000000       0.00000000       0.00000000       0.25795618
As       0.00000000       0.00000000       3.94242424       0.00000000       0.00000000      -0.25795618
2
Properties=species:S:1:pos:R:3:forces:R:3 energy=-23.50567888551478 pbc="F F F"
As       0.00000000       0.00000000       0.00000000       0.00000000       0.00000000       0.19330564
As       0.00000000       0.00000000       4.00121212       0.00000000       0.00000000      -0.19330564
2
Properties=species:S:1:pos:R:3:forces:R:3 energy=-23.49603450199203 pbc="F F F"
As       0.00000000       0.00000000       0.00000000       0.00000000       0.00000000       0.13606466
As       0.00000000       0.00000000       4.06000000       0.00000000       0.00000000      -0.13606466
2
Properties=species:S:1:pos:R:3:forces:R:3 energy=-23.48953596804019 pbc="F F F"
As       0.00000000       0.00000000       0.00000000       0.00000000       0.00000000       0.08618923
As       0.00000000       0.00000000       4.11878788       0.00000000       0.00000000      -0.08618923
2
Properties=species:S:1:pos:R:3:forces:R:3 energy=-23.485771286851115 pbc="F F F"
As       0.00000000       0.00000000       0.00000000       0.00000000       0.00000000       0.04292925
As       0.00000000       0.00000000       4.17757576       0.00000000       0.00000000      -0.04292925
2
Properties=species:S:1:pos:R:3:forces:R:3 energy=-23.484383807989126 pbc="F F F"
As       0.00000000       0.00000000       0.00000000       0.00000000       0.00000000       0.00502599
As       0.00000000       0.00000000       4.23636364       0.00000000       0.00000000      -0.00502599
2
Properties=species:S:1:pos:R:3:forces:R:3 energy=-23.485102771895658 pbc="F F F"
As       0.00000000       0.00000000       0.00000000       0.00000000       0.00000000      -0.02892239
As       0.00000000       0.00000000       4.29515152       0.00000000       0.00000000       0.02892239
2
Properties=species:S:1:pos:R:3:forces:R:3 energy=-23.487729950529246 pbc="F F F"
As       0.00000000       0.00000000       0.00000000       0.00000000       0.00000000      -0.06006780
As       0.00000000       0.00000000       4.35393939       0.00000000       0.00000000       0.06006780
2
Properties=species:S:1:pos:R:3:forces:R:3 energy=-23.492122470140473 pbc="F F F"
As       0.00000000       0.00000000       0.00000000       0.00000000       0.00000000      -0.08903228
As       0.00000000       0.00000000       4.41272727       0.00000000       0.00000000       0.08903228
2
Properties=species:S:1:pos:R:3:forces:R:3 energy=-23.49815469122579 pbc="F F F"
As       0.00000000       0.00000000       0.00000000       0.00000000       0.00000000      -0.11578761
As       0.00000000       0.00000000       4.47151515       0.00000000       0.00000000       0.11578761
2
Properties=species:S:1:pos:R:3:forces:R:3 energy=-23.505681956232202 pbc="F F F"
As       0.00000000       0.00000000       0.00000000       0.00000000       0.00000000      -0.13971496
As       0.00000000       0.00000000       4.53030303       0.00000000       0.00000000       0.13971496
2
Properties=species:S:1:pos:R:3:forces:R:3 energy=-23.514508162254657 pbc="F F F"
As       0.00000000       0.00000000       0.00000000       0.00000000       0.00000000      -0.15979688
As       0.00000000       0.00000000       4.58909091       0.00000000       0.00000000       0.15979688
2
Properties=species:S:1:pos:R:3:forces:R:3 energy=-23.524372411971473 pbc="F F F"
As       0.00000000       0.00000000       0.00000000       0.00000000       0.00000000      -0.17491607
As       0.00000000       0.00000000       4.64787879       0.00000000       0.00000000       0.17491607
2
Properties=species:S:1:pos:R:3:forces:R:3 energy=-23.534958547219684 pbc="F F F"
As       0.00000000       0.00000000       0.00000000       0.00000000       0.00000000      -0.18417200
As       0.00000000       0.00000000       4.70666667       0.00000000       0.00000000       0.18417200
2
Properties=species:S:1:pos:R:3:forces:R:3 energy=-23.545904680194507 pbc="F F F"
As       0.00000000       0.00000000       0.00000000       0.00000000       0.00000000      -0.18720129
As       0.00000000       0.00000000       4.76545455       0.00000000       0.00000000       0.18720129
2
Properties=species:S:1:pos:R:3:forces:R:3 energy=-23.55685278688967 pbc="F F F"
As       0.00000000       0.00000000       0.00000000       0.00000000       0.00000000      -0.18438891
As       0.00000000       0.00000000       4.82424242       0.00000000       0.00000000       0.18438891
2
Properties=species:S:1:pos:R:3:forces:R:3 energy=-23.56749256027686 pbc="F F F"
As       0.00000000       0.00000000       0.00000000       0.00000000       0.00000000      -0.17691165
As       0.00000000       0.00000000       4.88303030       0.00000000       0.00000000       0.17691165
2
Properties=species:S:1:pos:R:3:forces:R:3 energy=-23.57759763250671 pbc="F F F"
As       0.00000000       0.00000000       0.00000000       0.00000000       0.00000000      -0.16659604
As       0.00000000       0.00000000       4.94181818       0.00000000       0.00000000       0.16659604
2
Properties=species:S:1:pos:R:3:forces:R:3 energy=-23.587065655364633 pbc="F F F"
As       0.00000000       0.00000000       0.00000000       0.00000000       0.00000000      -0.15556115
As       0.00000000       0.00000000       5.00060606       0.00000000       0.00000000       0.15556115
2
Properties=species:S:1:pos:R:3:forces:R:3 energy=-23.595912539419096 pbc="F F F"
As       0.00000000       0.00000000       0.00000000       0.00000000       0.00000000      -0.14570494
As       0.00000000       0.00000000       5.05939394       0.00000000       0.00000000       0.14570494
2
Properties=species:S:1:pos:R:3:forces:R:3 energy=-23.60424193565155 pbc="F F F"
As       0.00000000       0.00000000       0.00000000       0.00000000       0.00000000      -0.13809337
As       0.00000000       0.00000000       5.11818182       0.00000000       0.00000000       0.13809337
2
Properties=species:S:1:pos:R:3:forces:R:3 energy=-23.61218610210511 pbc="F F F"
As       0.00000000       0.00000000       0.00000000       0.00000000       0.00000000      -0.13234818
As       0.00000000       0.00000000       5.17696970       0.00000000       0.00000000       0.13234818
2
Properties=species:S:1:pos:R:3:forces:R:3 energy=-23.61979717550902 pbc="F F F"
As       0.00000000       0.00000000       0.00000000       0.00000000       0.00000000      -0.12628227
As       0.00000000       0.00000000       5.23575758       0.00000000       0.00000000       0.12628227
2
Properties=species:S:1:pos:R:3:forces:R:3 energy=-23.626955609040824 pbc="F F F"
As       0.00000000       0.00000000       0.00000000       0.00000000       0.00000000      -0.11632659
As       0.00000000       0.00000000       5.29454545       0.00000000       0.00000000       0.11632659
2
Properties=species:S:1:pos:R:3:forces:R:3 energy=-23.633351096464157 pbc="F F F"
As       0.00000000       0.00000000       0.00000000       0.00000000       0.00000000      -0.10032625
As       0.00000000       0.00000000       5.35333333       0.00000000       0.00000000       0.10032625
2
Properties=species:S:1:pos:R:3:forces:R:3 energy=-23.638741954911755 pbc="F F F"
As       0.00000000       0.00000000       0.00000000       0.00000000       0.00000000      -0.08424488
As       0.00000000       0.00000000       5.41212121       0.00000000       0.00000000       0.08424488
2
Properties=species:S:1:pos:R:3:forces:R:3 energy=-23.64355976350953 pbc="F F F"
As       0.00000000       0.00000000       0.00000000       0.00000000       0.00000000      -0.08302443
As       0.00000000       0.00000000       5.47090909       0.00000000       0.00000000       0.08302443
2
Properties=species:S:1:pos:R:3:forces:R:3 energy=-23.648745315159065 pbc="F F F"
As       0.00000000       0.00000000       0.00000000       0.00000000       0.00000000      -0.09274165
As       0.00000000       0.00000000       5.52969697       0.00000000       0.00000000       0.09274165
2
Properties=species:S:1:pos:R:3:forces:R:3 energy=-23.65408540457004 pbc="F F F"
As       0.00000000       0.00000000       0.00000000       0.00000000       0.00000000      -0.08477786
As       0.00000000       0.00000000       5.58848485       0.00000000       0.00000000       0.08477786
2
Properties=species:S:1:pos:R:3:forces:R:3 energy=-23.658413116497712 pbc="F F F"
As       0.00000000       0.00000000       0.00000000       0.00000000       0.00000000      -0.06241095
As       0.00000000       0.00000000       5.64727273       0.00000000       0.00000000       0.06241095
2
Properties=species:S:1:pos:R:3:forces:R:3 energy=-23.661719234940914 pbc="F F F"
As       0.00000000       0.00000000       0.00000000       0.00000000       0.00000000      -0.05436379
As       0.00000000       0.00000000       5.70606061       0.00000000       0.00000000       0.05436379
2
Properties=species:S:1:pos:R:3:forces:R:3 energy=-23.66524762205703 pbc="F F F"
As       0.00000000       0.00000000       0.00000000       0.00000000       0.00000000      -0.06673525
As       0.00000000       0.00000000       5.76484848       0.00000000       0.00000000       0.06673525
2
Properties=species:S:1:pos:R:3:forces:R:3 energy=-23.66928843004905 pbc="F F F"
As       0.00000000       0.00000000       0.00000000       0.00000000       0.00000000      -0.06599520
As       0.00000000       0.00000000       5.82363636       0.00000000       0.00000000       0.06599520
2
Properties=species:S:1:pos:R:3:forces:R:3 energy=-23.67244565276003 pbc="F F F"
As       0.00000000       0.00000000       0.00000000       0.00000000       0.00000000      -0.03877238
As       0.00000000       0.00000000       5.88242424       0.00000000       0.00000000       0.03877238
2
Properties=species:S:1:pos:R:3:forces:R:3 energy=-23.673809619920544 pbc="F F F"
As       0.00000000       0.00000000       0.00000000       0.00000000       0.00000000      -0.00913297
As       0.00000000       0.00000000       5.94121212       0.00000000       0.00000000       0.00913297
2
Properties=species:S:1:pos:R:3:forces:R:3 energy=-23.673885873952948 pbc="F F F"
As       0.00000000       0.00000000       0.00000000       0.00000000       0.00000000       0.00261428
As       0.00000000       0.00000000       6.00000000       0.00000000       0.00000000      -0.00261428
