2
Properties=species:S:1:pos:R:3:forces:R:3 energy=85945.34142726529 pbc="F F F"
Au       0.00000000       0.00000000       0.00000000       0.00000000       0.00000000 -2187287.25000000
Au       0.00000000       0.00000000       0.10000000       0.00000000       0.00000000 2187287.25000000
2
Properties=species:S:1:pos:R:3:forces:R:3 energy=23377.89611476528 pbc="F F F"
Au       0.00000000       0.00000000       0.00000000       0.00000000       0.00000000 -446153.84375000
Au       0.00000000       0.00000000       0.15959596       0.00000000       0.00000000  446153.84375000
2
Properties=species:S:1:pos:R:3:forces:R:3 energy=8298.631466327783 pbc="F F F"
Au       0.00000000       0.00000000       0.00000000       0.00000000       0.00000000 -132796.96875000
Au       0.00000000       0.00000000       0.21919192       0.00000000       0.00000000  132796.96875000
2
Properties=species:S:1:pos:R:3:forces:R:3 energy=3382.1363491402817 pbc="F F F"
Au       0.00000000       0.00000000       0.00000000       0.00000000       0.00000000  -48222.47265625
Au       0.00000000       0.00000000       0.27878788       0.00000000       0.00000000   48222.47265625
2
Properties=species:S:1:pos:R:3:forces:R:3 energy=1501.4163784379487 pbc="F F F"
Au       0.00000000       0.00000000       0.00000000       0.00000000       0.00000000  -19574.65039062
Au       0.00000000       0.00000000       0.33838384       0.00000000       0.00000000   19574.65039062
2
Properties=species:S:1:pos:R:3:forces:R:3 energy=715.0995449418549 pbc="F F F"
Au       0.00000000       0.00000000       0.00000000       0.00000000       0.00000000   -8465.74218750
Au       0.00000000       0.00000000       0.39797980       0.00000000       0.00000000    8465.74218750
2
Properties=species:S:1:pos:R:3:forces:R:3 energy=411.4412807824906 pbc="F F F"
Au       0.00000000       0.00000000       0.00000000       0.00000000       0.00000000   -2683.54760742
Au       0.00000000       0.00000000       0.45757576       0.00000000       0.00000000    2683.54760742
2
Properties=species:S:1:pos:R:3:forces:R:3 energy=322.7996181872102 pbc="F F F"
Au       0.00000000       0.00000000       0.00000000       0.00000000       0.00000000    -962.07116699
Au       0.00000000       0.00000000       0.51717172       0.00000000       0.00000000     962.07116699
2
Properties=species:S:1:pos:R:3:forces:R:3 energy=299.1085781521075 pbc="F F F"
Au       0.00000000       0.00000000       0.00000000       0.00000000       0.00000000    -512.22692871
Au       0.00000000       0.00000000       0.57676768       0.00000000       0.00000000     512.22692871
2
Properties=species:S:1:pos:R:3:forces:R:3 energy=286.414425324828 pbc="F F F"
Au       0.00000000       0.00000000       0.00000000       0.00000000       0.00000000     161.20126343
Au       0.00000000       0.00000000       0.63636364       0.00000000       0.00000000    -161.20126343
2
Properties=species:S:1:pos:R:3:forces:R:3 energy=291.26769681949844 pbc="F F F"
Au       0.00000000       0.00000000       0.00000000       0.00000000       0.00000000    -234.57348633
Au       0.00000000       0.00000000       0.69595960       0.00000000       0.00000000     234.57348633
2
Properties=species:S:1:pos:R:3:forces:R:3 energy=186.80021331245385 pbc="F F F"
Au       0.00000000       0.00000000       0.00000000       0.00000000       0.00000000   -2014.90234375
Au       0.00000000       0.00000000       0.75555556       0.00000000       0.00000000    2014.90234375
2
Properties=species:S:1:pos:R:3:forces:R:3 energy=73.94268464652126 pbc="F F F"
Au       0.00000000       0.00000000       0.00000000       0.00000000       0.00000000   -1760.12121582
Au       0.00000000       0.00000000       0.81515152       0.00000000       0.00000000    1760.12121582
2
Properties=species:S:1:pos:R:3:forces:R:3 energy=36.86982395884213 pbc="F F F"
Au       0.00000000       0.00000000       0.00000000       0.00000000       0.00000000     -25.23624611
Au       0.00000000       0.00000000       0.87474747       0.00000000       0.00000000      25.23624611
2
Properties=species:S:1:pos:R:3:forces:R:3 energy=33.125828335103826 pbc="F F F"
Au       0.00000000       0.00000000       0.00000000       0.00000000       0.00000000    -106.93480682
Au       0.00000000       0.00000000       0.93434343       0.00000000       0.00000000     106.93480682
2
Properties=species:S:1:pos:R:3:forces:R:3 energy=24.391346582185097 pbc="F F F"
Au       0.00000000       0.00000000       0.00000000       0.00000000       0.00000000    -176.49266052
Au       0.00000000       0.00000000       0.99393939       0.00000000       0.00000000     176.49266052
2
Properties=species:S:1:pos:R:3:forces:R:3 energy=11.155621258548619 pbc="F F F"
Au       0.00000000       0.00000000       0.00000000       0.00000000       0.00000000    -261.94064331
Au       0.00000000       0.00000000       1.05353535       0.00000000       0.00000000     261.94064331
2
Properties=species:S:1:pos:R:3:forces:R:3 energy=-3.922602817458245 pbc="F F F"
Au       0.00000000       0.00000000       0.00000000       0.00000000       0.00000000    -238.24174500
Au       0.00000000       0.00000000       1.11313131       0.00000000       0.00000000     238.24174500
2
Properties=species:S:1:pos:R:3:forces:R:3 energy=-17.218836810517356 pbc="F F F"
Au       0.00000000       0.00000000       0.00000000       0.00000000       0.00000000    -210.64108276
Au       0.00000000       0.00000000       1.17272727       0.00000000       0.00000000     210.64108276
2
Properties=species:S:1:pos:R:3:forces:R:3 energy=-29.3504894627747 pbc="F F F"
Au       0.00000000       0.00000000       0.00000000       0.00000000       0.00000000    -197.34547424
Au       0.00000000       0.00000000       1.23232323       0.00000000       0.00000000     197.34547424
2
Properties=species:S:1:pos:R:3:forces:R:3 energy=-40.596762274671036 pbc="F F F"
Au       0.00000000       0.00000000       0.00000000       0.00000000       0.00000000    -178.23379517
Au       0.00000000       0.00000000       1.29191919       0.00000000       0.00000000     178.23379517
2
Properties=species:S:1:pos:R:3:forces:R:3 energy=-50.503877921094606 pbc="F F F"
Au       0.00000000       0.00000000       0.00000000       0.00000000       0.00000000    -154.80867004
Au       0.00000000       0.00000000       1.35151515       0.00000000       0.00000000     154.80867004
2
Properties=species:S:1:pos:R:3:forces:R:3 energy=-59.18187896218756 pbc="F F F"
Au       0.00000000       0.00000000       0.00000000       0.00000000       0.00000000    -137.13519287
Au       0.00000000       0.00000000       1.41111111       0.00000000       0.00000000     137.13519287
2
Properties=species:S:1:pos:R:3:forces:R:3 energy=-66.7728285253558 pbc="F F F"
Au       0.00000000       0.00000000       0.00000000       0.00000000       0.00000000    -115.83652496
Au       0.00000000       0.00000000       1.47070707       0.00000000       0.00000000     115.83652496
2
Properties=species:S:1:pos:R:3:forces:R:3 energy=-72.81289755027309 pbc="F F F"
Au       0.00000000       0.00000000       0.00000000       0.00000000       0.00000000     -86.62854004
Au       0.00000000       0.00000000       1.53030303       0.00000000       0.00000000      86.62854004
2
Properties=species:S:1:pos:R:3:forces:R:3 energy=-77.23994460501916 pbc="F F F"
Au       0.00000000       0.00000000       0.00000000       0.00000000       0.00000000     -63.94064713
Au       0.00000000       0.00000000       1.58989899       0.00000000       0.00000000      63.94064713
2
Properties=species:S:1:pos:R:3:forces:R:3 energy=-80.65199212756481 pbc="F F F"
Au       0.00000000       0.00000000       0.00000000       0.00000000       0.00000000     -51.89125824
Au       0.00000000       0.00000000       1.64949495       0.00000000       0.00000000      51.89125824
2
Properties=species:S:1:pos:R:3:forces:R:3 energy=-83.52054430320125 pbc="F F F"
Au       0.00000000       0.00000000       0.00000000       0.00000000       0.00000000     -44.78656387
Au       0.00000000       0.00000000       1.70909091       0.00000000       0.00000000      44.78656387
2
Properties=species:S:1:pos:R:3:forces:R:3 energy=-86.01605703999509 pbc="F F F"
Au       0.00000000       0.00000000       0.00000000       0.00000000       0.00000000     -39.07169724
Au       0.00000000       0.00000000       1.76868687       0.00000000       0.00000000      39.07169724
2
Properties=species:S:1:pos:R:3:forces:R:3 energy=-88.18627506120441 pbc="F F F"
Au       0.00000000       0.00000000       0.00000000       0.00000000       0.00000000     -33.81290817
Au       0.00000000       0.00000000       1.82828283       0.00000000       0.00000000      33.81290817
2
Properties=species:S:1:pos:R:3:forces:R:3 energy=-90.05150014845499 pbc="F F F"
Au       0.00000000       0.00000000       0.00000000       0.00000000       0.00000000     -28.81963730
Au       0.00000000       0.00000000       1.88787879       0.00000000       0.00000000      28.81963730
2
Properties=species:S:1:pos:R:3:forces:R:3 energy=-91.62533548685344 pbc="F F F"
Au       0.00000000       0.00000000       0.00000000       0.00000000       0.00000000     -24.03138351
Au       0.00000000       0.00000000       1.94747475       0.00000000       0.00000000      24.03138351
2
Properties=species:S:1:pos:R:3:forces:R:3 energy=-92.9206670770377 pbc="F F F"
Au       0.00000000       0.00000000       0.00000000       0.00000000       0.00000000     -19.48850822
Au       0.00000000       0.00000000       2.00707071       0.00000000       0.00000000      19.48850822
2
Properties=species:S:1:pos:R:3:forces:R:3 energy=-93.95543159149662 pbc="F F F"
Au       0.00000000       0.00000000       0.00000000       0.00000000       0.00000000     -15.30880642
Au       0.00000000       0.00000000       2.06666667       0.00000000       0.00000000      15.30880642
2
Properties=species:S:1:pos:R:3:forces:R:3 energy=-94.7549891020141 pbc="F F F"
Au       0.00000000       0.00000000       0.00000000       0.00000000       0.00000000     -11.61265373
Au       0.00000000       0.00000000       2.12626263       0.00000000       0.00000000      11.61265373
2
Properties=species:S:1:pos:R:3:forces:R:3 energy=-95.35087948677648 pbc="F F F"
Au       0.00000000       0.00000000       0.00000000       0.00000000       0.00000000      -8.48450470
Au       0.00000000       0.00000000       2.18585859       0.00000000       0.00000000       8.48450470
2
Properties=species:S:1:pos:R:3:forces:R:3 energy=-95.77828186337653 pbc="F F F"
Au       0.00000000       0.00000000       0.00000000       0.00000000       0.00000000      -5.95890856
Au       0.00000000       0.00000000       2.24545455       0.00000000       0.00000000       5.95890856
2
Properties=species:S:1:pos:R:3:forces:R:3 energy=-96.07256609060592 pbc="F F F"
Au       0.00000000       0.00000000       0.00000000       0.00000000       0.00000000      -4.00679398
Au       0.00000000       0.00000000       2.30505051       0.00000000       0.00000000       4.00679398
2
Properties=species:S:1:pos:R:3:forces:R:3 energy=-96.26560779307141 pbc="F F F"
Au       0.00000000       0.00000000       0.00000000       0.00000000       0.00000000      -2.54471970
Au       0.00000000       0.00000000       2.36464646       0.00000000       0.00000000       2.54471970
2
Properties=species:S:1:pos:R:3:forces:R:3 energy=-96.38358348993398 pbc="F F F"
Au       0.00000000       0.00000000       0.00000000       0.00000000       0.00000000      -1.47095561
Au       0.00000000       0.00000000       2.42424242       0.00000000       0.00000000       1.47095561
2
Properties=species:S:1:pos:R:3:forces:R:3 energy=-96.44686380239234 pbc="F F F"
Au       0.00000000       0.00000000       0.00000000       0.00000000       0.00000000      -0.69621205
Au       0.00000000       0.00000000       2.48383838       0.00000000       0.00000000       0.69621205
2
Properties=species:S:1:pos:R:3:forces:R:3 energy=-96.4710663956594 pbc="F F F"
Au       0.00000000       0.00000000       0.00000000       0.00000000       0.00000000      -0.14856727
Au       0.00000000       0.00000000       2.54343434       0.00000000       0.00000000       0.14856727
2
Properties=species:S:1:pos:R:3:forces:R:3 energy=-96.46780380693015 pbc="F F F"
Au       0.00000000       0.00000000       0.00000000       0.00000000       0.00000000       0.23634201
Au       0.00000000       0.00000000       2.60303030       0.00000000       0.00000000      -0.23634201
2
Properties=species:S:1:pos:R:3:forces:R:3 energy=-96.44492021162166 pbc="F F F"
Au       0.00000000       0.00000000       0.00000000       0.00000000       0.00000000       0.51908034
Au       0.00000000       0.00000000       2.66262626       0.00000000       0.00000000      -0.51908034
2
Properties=species:S:1:pos:R:3:forces:R:3 energy=-96.4069878630441 pbc="F F F"
Au       0.00000000       0.00000000       0.00000000       0.00000000       0.00000000       0.74788624
Au       0.00000000       0.00000000       2.72222222       0.00000000       0.00000000      -0.74788624
2
Properties=species:S:1:pos:R:3:forces:R:3 energy=-96.35632272687727 pbc="F F F"
Au       0.00000000       0.00000000       0.00000000       0.00000000       0.00000000       0.94846153
Au       0.00000000       0.00000000       2.78181818       0.00000000       0.00000000      -0.94846153
2
Properties=species:S:1:pos:R:3:forces:R:3 energy=-96.29445023566963 pbc="F F F"
Au       0.00000000       0.00000000       0.00000000       0.00000000       0.00000000       1.12255681
Au       0.00000000       0.00000000       2.84141414       0.00000000       0.00000000      -1.12255681
2
Properties=species:S:1:pos:R:3:forces:R:3 energy=-96.22332532830448 pbc="F F F"
Au       0.00000000       0.00000000       0.00000000       0.00000000       0.00000000       1.25642061
Au       0.00000000       0.00000000       2.90101010       0.00000000       0.00000000      -1.25642061
2
Properties=species:S:1:pos:R:3:forces:R:3 energy=-96.1458142023685 pbc="F F F"
Au       0.00000000       0.00000000       0.00000000       0.00000000       0.00000000       1.33461678
Au       0.00000000       0.00000000       2.96060606       0.00000000       0.00000000      -1.33461678
2
Properties=species:S:1:pos:R:3:forces:R:3 energy=-96.06545400439748 pbc="F F F"
Au       0.00000000       0.00000000       0.00000000       0.00000000       0.00000000       1.35267174
Au       0.00000000       0.00000000       3.02020202       0.00000000       0.00000000      -1.35267174
2
Properties=species:S:1:pos:R:3:forces:R:3 energy=-95.9855682335114 pbc="F F F"
Au       0.00000000       0.00000000       0.00000000       0.00000000       0.00000000       1.32166624
Au       0.00000000       0.00000000       3.07979798       0.00000000       0.00000000      -1.32166624
2
Properties=species:S:1:pos:R:3:forces:R:3 energy=-95.90847015707422 pbc="F F F"
Au       0.00000000       0.00000000       0.00000000       0.00000000       0.00000000       1.26278675
Au       0.00000000       0.00000000       3.13939394       0.00000000       0.00000000      -1.26278675
2
Properties=species:S:1:pos:R:3:forces:R:3 energy=-95.83517779304373 pbc="F F F"
Au       0.00000000       0.00000000       0.00000000       0.00000000       0.00000000       1.19724524
Au       0.00000000       0.00000000       3.19898990       0.00000000       0.00000000      -1.19724524
2
Properties=species:S:1:pos:R:3:forces:R:3 energy=-95.76562106749337 pbc="F F F"
Au       0.00000000       0.00000000       0.00000000       0.00000000       0.00000000       1.13889015
Au       0.00000000       0.00000000       3.25858586       0.00000000       0.00000000      -1.13889015
2
Properties=species:S:1:pos:R:3:forces:R:3 energy=-95.69918201719427 pbc="F F F"
Au       0.00000000       0.00000000       0.00000000       0.00000000       0.00000000       1.09289181
Au       0.00000000       0.00000000       3.31818182       0.00000000       0.00000000      -1.09289181
2
Properties=species:S:1:pos:R:3:forces:R:3 energy=-95.63512615674041 pbc="F F F"
Au       0.00000000       0.00000000       0.00000000       0.00000000       0.00000000       1.05864346
Au       0.00000000       0.00000000       3.37777778       0.00000000       0.00000000      -1.05864346
2
Properties=species:S:1:pos:R:3:forces:R:3 energy=-95.57282362328411 pbc="F F F"
Au       0.00000000       0.00000000       0.00000000       0.00000000       0.00000000       1.03327096
Au       0.00000000       0.00000000       3.43737374       0.00000000       0.00000000      -1.03327096
2
Properties=species:S:1:pos:R:3:forces:R:3 energy=-95.51184909359966 pbc="F F F"
Au       0.00000000       0.00000000       0.00000000       0.00000000       0.00000000       1.01375532
Au       0.00000000       0.00000000       3.49696970       0.00000000       0.00000000      -1.01375532
2
Properties=species:S:1:pos:R:3:forces:R:3 energy=-95.45192128032923 pbc="F F F"
Au       0.00000000       0.00000000       0.00000000       0.00000000       0.00000000       0.99765515
Au       0.00000000       0.00000000       3.55656566       0.00000000       0.00000000      -0.99765515
2
Properties=species:S:1:pos:R:3:forces:R:3 energy=-95.39290337943781 pbc="F F F"
Au       0.00000000       0.00000000       0.00000000       0.00000000       0.00000000       0.98316956
Au       0.00000000       0.00000000       3.61616162       0.00000000       0.00000000      -0.98316956
2
Properties=species:S:1:pos:R:3:forces:R:3 energy=-95.33473457910058 pbc="F F F"
Au       0.00000000       0.00000000       0.00000000       0.00000000       0.00000000       0.96898818
Au       0.00000000       0.00000000       3.67575758       0.00000000       0.00000000      -0.96898818
2
Properties=species:S:1:pos:R:3:forces:R:3 energy=-95.27742253247075 pbc="F F F"
Au       0.00000000       0.00000000       0.00000000       0.00000000       0.00000000       0.95415705
Au       0.00000000       0.00000000       3.73535354       0.00000000       0.00000000      -0.95415705
2
Properties=species:S:1:pos:R:3:forces:R:3 energy=-95.22103587875654 pbc="F F F"
Au       0.00000000       0.00000000       0.00000000       0.00000000       0.00000000       0.93792158
Au       0.00000000       0.00000000       3.79494949       0.00000000       0.00000000      -0.93792158
2
Properties=species:S:1:pos:R:3:forces:R:3 energy=-95.16567367654177 pbc="F F F"
Au       0.00000000       0.00000000       0.00000000       0.00000000       0.00000000       0.91959018
Au       0.00000000       0.00000000       3.85454545       0.00000000       0.00000000      -0.91959018
2
Properties=species:S:1:pos:R:3:forces:R:3 energy=-95.11148075840161 pbc="F F F"
Au       0.00000000       0.00000000       0.00000000       0.00000000       0.00000000       0.89849561
Au       0.00000000       0.00000000       3.91414141       0.00000000       0.00000000      -0.89849561
2
Properties=species:S:1:pos:R:3:forces:R:3 energy=-95.0586476889289 pbc="F F F"
Au       0.00000000       0.00000000       0.00000000       0.00000000       0.00000000       0.87403864
Au       0.00000000       0.00000000       3.97373737       0.00000000       0.00000000      -0.87403864
2
Properties=species:S:1:pos:R:3:forces:R:3 energy=-95.00738031843204 pbc="F F F"
Au       0.00000000       0.00000000       0.00000000       0.00000000       0.00000000       0.84582299
Au       0.00000000       0.00000000       4.03333333       0.00000000       0.00000000      -0.84582299
2
Properties=species:S:1:pos:R:3:forces:R:3 energy=-94.95790736797998 pbc="F F F"
Au       0.00000000       0.00000000       0.00000000       0.00000000       0.00000000       0.81376791
Au       0.00000000       0.00000000       4.09292929       0.00000000       0.00000000      -0.81376791
2
Properties=species:S:1:pos:R:3:forces:R:3 energy=-94.9104499625093 pbc="F F F"
Au       0.00000000       0.00000000       0.00000000       0.00000000       0.00000000       0.77817166
Au       0.00000000       0.00000000       4.15252525       0.00000000       0.00000000      -0.77817166
2
Properties=species:S:1:pos:R:3:forces:R:3 energy=-94.86521396975141 pbc="F F F"
Au       0.00000000       0.00000000       0.00000000       0.00000000       0.00000000       0.73965365
Au       0.00000000       0.00000000       4.21212121       0.00000000       0.00000000      -0.73965365
2
Properties=species:S:1:pos:R:3:forces:R:3 energy=-94.82233662218928 pbc="F F F"
Au       0.00000000       0.00000000       0.00000000       0.00000000       0.00000000       0.69903320
Au       0.00000000       0.00000000       4.27171717       0.00000000       0.00000000      -0.69903320
2
Properties=species:S:1:pos:R:3:forces:R:3 energy=-94.78191704968278 pbc="F F F"
Au       0.00000000       0.00000000       0.00000000       0.00000000       0.00000000       0.65718329
Au       0.00000000       0.00000000       4.33131313       0.00000000       0.00000000      -0.65718329
2
Properties=species:S:1:pos:R:3:forces:R:3 energy=-94.74401624303862 pbc="F F F"
Au       0.00000000       0.00000000       0.00000000       0.00000000       0.00000000       0.61487627
Au       0.00000000       0.00000000       4.39090909       0.00000000       0.00000000      -0.61487627
2
Properties=species:S:1:pos:R:3:forces:R:3 energy=-94.70862659107725 pbc="F F F"
Au       0.00000000       0.00000000       0.00000000       0.00000000       0.00000000       0.57273763
Au       0.00000000       0.00000000       4.45050505       0.00000000       0.00000000      -0.57273763
2
Properties=species:S:1:pos:R:3:forces:R:3 energy=-94.675732881735 pbc="F F F"
Au       0.00000000       0.00000000       0.00000000       0.00000000       0.00000000       0.53124487
Au       0.00000000       0.00000000       4.51010101       0.00000000       0.00000000      -0.53124487
2
Properties=species:S:1:pos:R:3:forces:R:3 energy=-94.6452894328874 pbc="F F F"
Au       0.00000000       0.00000000       0.00000000       0.00000000       0.00000000       0.49070856
Au       0.00000000       0.00000000       4.56969697       0.00000000       0.00000000      -0.49070856
2
Properties=species:S:1:pos:R:3:forces:R:3 energy=-94.61722009234914 pbc="F F F"
Au       0.00000000       0.00000000       0.00000000       0.00000000       0.00000000       0.45131862
Au       0.00000000       0.00000000       4.62929293       0.00000000       0.00000000      -0.45131862
2
Properties=species:S:1:pos:R:3:forces:R:3 energy=-94.59147163967614 pbc="F F F"
Au       0.00000000       0.00000000       0.00000000       0.00000000       0.00000000       0.41315055
Au       0.00000000       0.00000000       4.68888889       0.00000000       0.00000000      -0.41315055
2
Properties=species:S:1:pos:R:3:forces:R:3 energy=-94.5679527731839 pbc="F F F"
Au       0.00000000       0.00000000       0.00000000       0.00000000       0.00000000       0.37622544
Au       0.00000000       0.00000000       4.74848485       0.00000000       0.00000000      -0.37622544
2
Properties=species:S:1:pos:R:3:forces:R:3 energy=-94.54660273806844 pbc="F F F"
Au       0.00000000       0.00000000       0.00000000       0.00000000       0.00000000       0.34066448
Au       0.00000000       0.00000000       4.80808081       0.00000000       0.00000000      -0.34066448
2
Properties=species:S:1:pos:R:3:forces:R:3 energy=-94.5273150744346 pbc="F F F"
Au       0.00000000       0.00000000       0.00000000       0.00000000       0.00000000       0.30687407
Au       0.00000000       0.00000000       4.86767677       0.00000000       0.00000000      -0.30687407
2
Properties=species:S:1:pos:R:3:forces:R:3 energy=-94.50996809052458 pbc="F F F"
Au       0.00000000       0.00000000       0.00000000       0.00000000       0.00000000       0.27570987
Au       0.00000000       0.00000000       4.92727273       0.00000000       0.00000000      -0.27570987
2
Properties=species:S:1:pos:R:3:forces:R:3 energy=-94.49437149259438 pbc="F F F"
Au       0.00000000       0.00000000       0.00000000       0.00000000       0.00000000       0.24847193
Au       0.00000000       0.00000000       4.98686869       0.00000000       0.00000000      -0.24847193
2
Properties=species:S:1:pos:R:3:forces:R:3 energy=-94.48025109761417 pbc="F F F"
Au       0.00000000       0.00000000       0.00000000       0.00000000       0.00000000       0.22660348
Au       0.00000000       0.00000000       5.04646465       0.00000000       0.00000000      -0.22660348
2
Properties=species:S:1:pos:R:3:forces:R:3 energy=-94.46724119753823 pbc="F F F"
Au       0.00000000       0.00000000       0.00000000       0.00000000       0.00000000       0.21098037
Au       0.00000000       0.00000000       5.10606061       0.00000000       0.00000000      -0.21098037
2
Properties=species:S:1:pos:R:3:forces:R:3 energy=-94.45498376044073 pbc="F F F"
Au       0.00000000       0.00000000       0.00000000       0.00000000       0.00000000       0.20093744
Au       0.00000000       0.00000000       5.16565657       0.00000000       0.00000000      -0.20093744
2
Properties=species:S:1:pos:R:3:forces:R:3 energy=-94.44324283896354 pbc="F F F"
Au       0.00000000       0.00000000       0.00000000       0.00000000       0.00000000       0.19331384
Au       0.00000000       0.00000000       5.22525253       0.00000000       0.00000000      -0.19331384
2
Properties=species:S:1:pos:R:3:forces:R:3 energy=-94.4320113865914 pbc="F F F"
Au       0.00000000       0.00000000       0.00000000       0.00000000       0.00000000       0.18246837
Au       0.00000000       0.00000000       5.28484848       0.00000000       0.00000000      -0.18246837
2
Properties=species:S:1:pos:R:3:forces:R:3 energy=-94.42166383683104 pbc="F F F"
Au       0.00000000       0.00000000       0.00000000       0.00000000       0.00000000       0.16337886
Au       0.00000000       0.00000000       5.34444444       0.00000000       0.00000000      -0.16337886
2
Properties=species:S:1:pos:R:3:forces:R:3 energy=-94.41262040707997 pbc="F F F"
Au       0.00000000       0.00000000       0.00000000       0.00000000       0.00000000       0.14077556
Au       0.00000000       0.00000000       5.40404040       0.00000000       0.00000000      -0.14077556
2
Properties=species:S:1:pos:R:3:forces:R:3 energy=-94.40455362060837 pbc="F F F"
Au       0.00000000       0.00000000       0.00000000       0.00000000       0.00000000       0.13405445
Au       0.00000000       0.00000000       5.46363636       0.00000000       0.00000000      -0.13405445
2
Properties=species:S:1:pos:R:3:forces:R:3 energy=-94.3962662433742 pbc="F F F"
Au       0.00000000       0.00000000       0.00000000       0.00000000       0.00000000       0.14424479
Au       0.00000000       0.00000000       5.52323232       0.00000000       0.00000000      -0.14424479
2
Properties=species:S:1:pos:R:3:forces:R:3 energy=-94.38778172901733 pbc="F F F"
Au       0.00000000       0.00000000       0.00000000       0.00000000       0.00000000       0.13504723
Au       0.00000000       0.00000000       5.58282828       0.00000000       0.00000000      -0.13504723
2
Properties=species:S:1:pos:R:3:forces:R:3 energy=-94.3806493772177 pbc="F F F"
Au       0.00000000       0.00000000       0.00000000       0.00000000       0.00000000       0.10356500
Au       0.00000000       0.00000000       5.64242424       0.00000000       0.00000000      -0.10356500
2
Properties=species:S:1:pos:R:3:forces:R:3 energy=-94.37511383188803 pbc="F F F"
Au       0.00000000       0.00000000       0.00000000       0.00000000       0.00000000       0.08744396
Au       0.00000000       0.00000000       5.70202020       0.00000000       0.00000000      -0.08744396
2
Properties=species:S:1:pos:R:3:forces:R:3 energy=-94.36957339851793 pbc="F F F"
Au       0.00000000       0.00000000       0.00000000       0.00000000       0.00000000       0.10153918
Au       0.00000000       0.00000000       5.76161616       0.00000000       0.00000000      -0.10153918
2
Properties=species:S:1:pos:R:3:forces:R:3 energy=-94.36330371188694 pbc="F F F"
Au       0.00000000       0.00000000       0.00000000       0.00000000       0.00000000       0.10185260
Au       0.00000000       0.00000000       5.82121212       0.00000000       0.00000000      -0.10185260
2
Properties=species:S:1:pos:R:3:forces:R:3 energy=-94.35825066239035 pbc="F F F"
Au       0.00000000       0.00000000       0.00000000       0.00000000       0.00000000       0.06385642
Au       0.00000000       0.00000000       5.88080808       0.00000000       0.00000000      -0.06385642
2
Properties=species:S:1:pos:R:3:forces:R:3 energy=-94.35578025892177 pbc="F F F"
Au       0.00000000       0.00000000       0.00000000       0.00000000       0.00000000       0.02057522
Au       0.00000000       0.00000000       5.94040404       0.00000000       0.00000000      -0.02057522
2
Properties=species:S:1:pos:R:3:forces:R:3 energy=-94.35525956742993 pbc="F F F"
Au       0.00000000       0.00000000       0.00000000       0.00000000       0.00000000       0.00293929
Au       0.00000000       0.00000000       6.00000000       0.00000000       0.00000000      -0.00293929
