2
Properties=species:S:1:pos:R:3:forces:R:3 energy=16055.334591327783 pbc="F F F"
Au       0.00000000       0.00000000       0.00000000       0.00000000       0.00000000 -285737.75000000
Au       0.00000000       0.00000000       0.18000000       0.00000000       0.00000000  285737.75000000
2
Properties=species:S:1:pos:R:3:forces:R:3 energy=6105.951778827782 pbc="F F F"
Au       0.00000000       0.00000000       0.00000000       0.00000000       0.00000000  -93621.37500000
Au       0.00000000       0.00000000       0.23878788       0.00000000       0.00000000   93621.37500000
2
Properties=species:S:1:pos:R:3:forces:R:3 energy=2597.6207241402817 pbc="F F F"
Au       0.00000000       0.00000000       0.00000000       0.00000000       0.00000000  -35958.36718750
Au       0.00000000       0.00000000       0.29757576       0.00000000       0.00000000   35958.36718750
2
Properties=species:S:1:pos:R:3:forces:R:3 energy=1191.3564419145112 pbc="F F F"
Au       0.00000000       0.00000000       0.00000000       0.00000000       0.00000000  -15120.06933594
Au       0.00000000       0.00000000       0.35636364       0.00000000       0.00000000   15120.06933594
2
Properties=species:S:1:pos:R:3:forces:R:3 energy=585.6407436731156 pbc="F F F"
Au       0.00000000       0.00000000       0.00000000       0.00000000       0.00000000   -6473.62011719
Au       0.00000000       0.00000000       0.41515152       0.00000000       0.00000000    6473.62011719
2
Properties=species:S:1:pos:R:3:forces:R:3 energy=374.1047329317201 pbc="F F F"
Au       0.00000000       0.00000000       0.00000000       0.00000000       0.00000000   -1907.08032227
Au       0.00000000       0.00000000       0.47393939       0.00000000       0.00000000    1907.08032227
2
Properties=species:S:1:pos:R:3:forces:R:3 energy=310.0880093012834 pbc="F F F"
Au       0.00000000       0.00000000       0.00000000       0.00000000       0.00000000    -594.61730957
Au       0.00000000       0.00000000       0.53272727       0.00000000       0.00000000     594.61730957
2
Properties=species:S:1:pos:R:3:forces:R:3 energy=290.39013332868075 pbc="F F F"
Au       0.00000000       0.00000000       0.00000000       0.00000000       0.00000000    -453.24371338
Au       0.00000000       0.00000000       0.59151515       0.00000000       0.00000000     453.24371338
2
Properties=species:S:1:pos:R:3:forces:R:3 energy=288.87804837407884 pbc="F F F"
Au       0.00000000       0.00000000       0.00000000       0.00000000       0.00000000     170.67671204
Au       0.00000000       0.00000000       0.65030303       0.00000000       0.00000000    -170.67671204
2
Properties=species:S:1:pos:R:3:forces:R:3 energy=282.85143705624927 pbc="F F F"
Au       0.00000000       0.00000000       0.00000000       0.00000000       0.00000000   -1252.26379395
Au       0.00000000       0.00000000       0.70909091       0.00000000       0.00000000    1252.26379395
2
Properties=species:S:1:pos:R:3:forces:R:3 energy=162.207043150398 pbc="F F F"
Au       0.00000000       0.00000000       0.00000000       0.00000000       0.00000000   -1973.64428711
Au       0.00000000       0.00000000       0.76787879       0.00000000       0.00000000    1973.64428711
2
Properties=species:S:1:pos:R:3:forces:R:3 energy=53.98998689736674 pbc="F F F"
Au       0.00000000       0.00000000       0.00000000       0.00000000       0.00000000   -1704.98840332
Au       0.00000000       0.00000000       0.82666667       0.00000000       0.00000000    1704.98840332
2
Properties=species:S:1:pos:R:3:forces:R:3 energy=36.54259923531637 pbc="F F F"
Au       0.00000000       0.00000000       0.00000000       0.00000000       0.00000000     -36.29380798
Au       0.00000000       0.00000000       0.88545455       0.00000000       0.00000000      36.29380798
2
Properties=species:S:1:pos:R:3:forces:R:3 energy=31.99222238599213 pbc="F F F"
Au       0.00000000       0.00000000       0.00000000       0.00000000       0.00000000    -121.98640442
Au       0.00000000       0.00000000       0.94424242       0.00000000       0.00000000     121.98640442
2
Properties=species:S:1:pos:R:3:forces:R:3 energy=22.752567906749036 pbc="F F F"
Au       0.00000000       0.00000000       0.00000000       0.00000000       0.00000000    -184.58901978
Au       0.00000000       0.00000000       1.00303030       0.00000000       0.00000000     184.58901978
2
Properties=species:S:1:pos:R:3:forces:R:3 energy=8.98479912766522 pbc="F F F"
Au       0.00000000       0.00000000       0.00000000       0.00000000       0.00000000    -261.81893921
Au       0.00000000       0.00000000       1.06181818       0.00000000       0.00000000     261.81893921
2
Properties=species:S:1:pos:R:3:forces:R:3 energy=-5.687556416484296 pbc="F F F"
Au       0.00000000       0.00000000       0.00000000       0.00000000       0.00000000    -234.05813599
Au       0.00000000       0.00000000       1.12060606       0.00000000       0.00000000     234.05813599
2
Properties=species:S:1:pos:R:3:forces:R:3 energy=-18.6165952761891 pbc="F F F"
Au       0.00000000       0.00000000       0.00000000       0.00000000       0.00000000    -208.68745422
Au       0.00000000       0.00000000       1.17939394       0.00000000       0.00000000     208.68745422
2
Properties=species:S:1:pos:R:3:forces:R:3 energy=-30.502680605085185 pbc="F F F"
Au       0.00000000       0.00000000       0.00000000       0.00000000       0.00000000    -195.97711182
Au       0.00000000       0.00000000       1.23818182       0.00000000       0.00000000     195.97711182
2
Properties=species:S:1:pos:R:3:forces:R:3 energy=-41.49185044829706 pbc="F F F"
Au       0.00000000       0.00000000       0.00000000       0.00000000       0.00000000    -176.19885254
Au       0.00000000       0.00000000       1.29696970       0.00000000       0.00000000     176.19885254
2
Properties=species:S:1:pos:R:3:forces:R:3 energy=-51.15754153417375 pbc="F F F"
Au       0.00000000       0.00000000       0.00000000       0.00000000       0.00000000    -153.35472107
Au       0.00000000       0.00000000       1.35575758       0.00000000       0.00000000     153.35472107
2
Properties=species:S:1:pos:R:3:forces:R:3 energy=-59.651185884229676 pbc="F F F"
Au       0.00000000       0.00000000       0.00000000       0.00000000       0.00000000    -136.15834045
Au       0.00000000       0.00000000       1.41454545       0.00000000       0.00000000     136.15834045
2
Properties=species:S:1:pos:R:3:forces:R:3 energy=-67.07550184223284 pbc="F F F"
Au       0.00000000       0.00000000       0.00000000       0.00000000       0.00000000    -114.64138794
Au       0.00000000       0.00000000       1.47333333       0.00000000       0.00000000     114.64138794
2
Properties=species:S:1:pos:R:3:forces:R:3 energy=-72.96962055451905 pbc="F F F"
Au       0.00000000       0.00000000       0.00000000       0.00000000       0.00000000     -85.77041626
Au       0.00000000       0.00000000       1.53212121       0.00000000       0.00000000      85.77041626
2
Properties=species:S:1:pos:R:3:forces:R:3 energy=-77.30439008795335 pbc="F F F"
Au       0.00000000       0.00000000       0.00000000       0.00000000       0.00000000     -63.66046906
Au       0.00000000       0.00000000       1.59090909       0.00000000       0.00000000      63.66046906
2
Properties=species:S:1:pos:R:3:forces:R:3 energy=-80.66247491169096 pbc="F F F"
Au       0.00000000       0.00000000       0.00000000       0.00000000       0.00000000     -51.86191940
Au       0.00000000       0.00000000       1.64969697       0.00000000       0.00000000      51.86191940
2
Properties=species:S:1:pos:R:3:forces:R:3 energy=-83.49336841017636 pbc="F F F"
Au       0.00000000       0.00000000       0.00000000       0.00000000       0.00000000     -44.84889603
Au       0.00000000       0.00000000       1.70848485       0.00000000       0.00000000      44.84889603
2
Properties=species:S:1:pos:R:3:forces:R:3 energy=-85.96070581197321 pbc="F F F"
Au       0.00000000       0.00000000       0.00000000       0.00000000       0.00000000     -39.20075226
Au       0.00000000       0.00000000       1.76727273       0.00000000       0.00000000      39.20075226
2
Properties=species:S:1:pos:R:3:forces:R:3 energy=-88.1109195876481 pbc="F F F"
Au       0.00000000       0.00000000       0.00000000       0.00000000       0.00000000     -34.00362015
Au       0.00000000       0.00000000       1.82606061       0.00000000       0.00000000      34.00362015
2
Properties=species:S:1:pos:R:3:forces:R:3 energy=-89.96378509297996 pbc="F F F"
Au       0.00000000       0.00000000       0.00000000       0.00000000       0.00000000     -29.06848145
Au       0.00000000       0.00000000       1.88484848       0.00000000       0.00000000      29.06848145
2
Properties=species:S:1:pos:R:3:forces:R:3 energy=-91.53251640603479 pbc="F F F"
Au       0.00000000       0.00000000       0.00000000       0.00000000       0.00000000     -24.33339119
Au       0.00000000       0.00000000       1.94363636       0.00000000       0.00000000      24.33339119
2
Properties=species:S:1:pos:R:3:forces:R:3 energy=-92.82932052480047 pbc="F F F"
Au       0.00000000       0.00000000       0.00000000       0.00000000       0.00000000     -19.83134842
Au       0.00000000       0.00000000       2.00242424       0.00000000       0.00000000      19.83134842
2
Properties=species:S:1:pos:R:3:forces:R:3 energy=-93.87093630444858 pbc="F F F"
Au       0.00000000       0.00000000       0.00000000       0.00000000       0.00000000     -15.67285728
Au       0.00000000       0.00000000       2.06121212       0.00000000       0.00000000      15.67285728
2
Properties=species:S:1:pos:R:3:forces:R:3 energy=-94.68112927568185 pbc="F F F"
Au       0.00000000       0.00000000       0.00000000       0.00000000       0.00000000     -11.97547340
Au       0.00000000       0.00000000       2.12000000       0.00000000       0.00000000      11.97547340
2
Properties=species:S:1:pos:R:3:forces:R:3 energy=-95.28969981077375 pbc="F F F"
Au       0.00000000       0.00000000       0.00000000       0.00000000       0.00000000      -8.82424927
Au       0.00000000       0.00000000       2.17878788       0.00000000       0.00000000       8.82424927
2
Properties=species:S:1:pos:R:3:forces:R:3 energy=-95.73016381930921 pbc="F F F"
Au       0.00000000       0.00000000       0.00000000       0.00000000       0.00000000      -6.25860262
Au       0.00000000       0.00000000       2.23757576       0.00000000       0.00000000       6.25860262
2
Properties=species:S:1:pos:R:3:forces:R:3 energy=-96.03667046566642 pbc="F F F"
Au       0.00000000       0.00000000       0.00000000       0.00000000       0.00000000      -4.25844955
Au       0.00000000       0.00000000       2.29636364       0.00000000       0.00000000       4.25844955
2
Properties=species:S:1:pos:R:3:forces:R:3 energy=-96.24048500309074 pbc="F F F"
Au       0.00000000       0.00000000       0.00000000       0.00000000       0.00000000      -2.74907565
Au       0.00000000       0.00000000       2.35515152       0.00000000       0.00000000       2.74907565
2
Properties=species:S:1:pos:R:3:forces:R:3 energy=-96.36760084052267 pbc="F F F"
Au       0.00000000       0.00000000       0.00000000       0.00000000       0.00000000      -1.63297606
Au       0.00000000       0.00000000       2.41393939       0.00000000       0.00000000       1.63297606
2
Properties=species:S:1:pos:R:3:forces:R:3 energy=-96.43844198908354 pbc="F F F"
Au       0.00000000       0.00000000       0.00000000       0.00000000       0.00000000      -0.82143968
Au       0.00000000       0.00000000       2.47272727       0.00000000       0.00000000       0.82143968
2
Properties=species:S:1:pos:R:3:forces:R:3 energy=-96.46874050263517 pbc="F F F"
Au       0.00000000       0.00000000       0.00000000       0.00000000       0.00000000      -0.24305500
Au       0.00000000       0.00000000       2.53151515       0.00000000       0.00000000       0.24305500
2
Properties=species:S:1:pos:R:3:forces:R:3 energy=-96.47036058702174 pbc="F F F"
Au       0.00000000       0.00000000       0.00000000       0.00000000       0.00000000       0.16467668
Au       0.00000000       0.00000000       2.59030303       0.00000000       0.00000000      -0.16467668
2
Properties=species:S:1:pos:R:3:forces:R:3 energy=-96.45155822519114 pbc="F F F"
Au       0.00000000       0.00000000       0.00000000       0.00000000       0.00000000       0.46102545
Au       0.00000000       0.00000000       2.64909091       0.00000000       0.00000000      -0.46102545
2
Properties=species:S:1:pos:R:3:forces:R:3 energy=-96.41734015550769 pbc="F F F"
Au       0.00000000       0.00000000       0.00000000       0.00000000       0.00000000       0.69594049
Au       0.00000000       0.00000000       2.70787879       0.00000000       0.00000000      -0.69594049
2
Properties=species:S:1:pos:R:3:forces:R:3 energy=-96.37032680033685 pbc="F F F"
Au       0.00000000       0.00000000       0.00000000       0.00000000       0.00000000       0.89968532
Au       0.00000000       0.00000000       2.76666667       0.00000000       0.00000000      -0.89968532
2
Properties=species:S:1:pos:R:3:forces:R:3 energy=-96.31202730706366 pbc="F F F"
Au       0.00000000       0.00000000       0.00000000       0.00000000       0.00000000       1.07915819
Au       0.00000000       0.00000000       2.82545455       0.00000000       0.00000000      -1.07915819
2
Properties=species:S:1:pos:R:3:forces:R:3 energy=-96.24412131488425 pbc="F F F"
Au       0.00000000       0.00000000       0.00000000       0.00000000       0.00000000       1.22383642
Au       0.00000000       0.00000000       2.88424242       0.00000000       0.00000000      -1.22383642
2
Properties=species:S:1:pos:R:3:forces:R:3 energy=-96.16912607684422 pbc="F F F"
Au       0.00000000       0.00000000       0.00000000       0.00000000       0.00000000       1.31790817
Au       0.00000000       0.00000000       2.94303030       0.00000000       0.00000000      -1.31790817
2
Properties=species:S:1:pos:R:3:forces:R:3 energy=-96.09033264778097 pbc="F F F"
Au       0.00000000       0.00000000       0.00000000       0.00000000       0.00000000       1.35313261
Au       0.00000000       0.00000000       3.00181818       0.00000000       0.00000000      -1.35313261
2
Properties=species:S:1:pos:R:3:forces:R:3 energy=-96.01106849213588 pbc="F F F"
Au       0.00000000       0.00000000       0.00000000       0.00000000       0.00000000       1.33581042
Au       0.00000000       0.00000000       3.06060606       0.00000000       0.00000000      -1.33581042
2
Properties=species:S:1:pos:R:3:forces:R:3 energy=-95.93394161142551 pbc="F F F"
Au       0.00000000       0.00000000       0.00000000       0.00000000       0.00000000       1.28423643
Au       0.00000000       0.00000000       3.11939394       0.00000000       0.00000000      -1.28423643
2
Properties=species:S:1:pos:R:3:forces:R:3 energy=-95.86032345189594 pbc="F F F"
Au       0.00000000       0.00000000       0.00000000       0.00000000       0.00000000       1.21982515
Au       0.00000000       0.00000000       3.17818182       0.00000000       0.00000000      -1.21982515
2
Properties=species:S:1:pos:R:3:forces:R:3 energy=-95.79045426359971 pbc="F F F"
Au       0.00000000       0.00000000       0.00000000       0.00000000       0.00000000       1.15873694
Au       0.00000000       0.00000000       3.23696970       0.00000000       0.00000000      -1.15873694
2
Properties=species:S:1:pos:R:3:forces:R:3 energy=-95.72386855002937 pbc="F F F"
Au       0.00000000       0.00000000       0.00000000       0.00000000       0.00000000       1.10870814
Au       0.00000000       0.00000000       3.29575758       0.00000000       0.00000000      -1.10870814
2
Properties=species:S:1:pos:R:3:forces:R:3 energy=-95.65985533564756 pbc="F F F"
Au       0.00000000       0.00000000       0.00000000       0.00000000       0.00000000       1.07076406
Au       0.00000000       0.00000000       3.35454545       0.00000000       0.00000000      -1.07076406
2
Properties=species:S:1:pos:R:3:forces:R:3 energy=-95.5977777285144 pbc="F F F"
Au       0.00000000       0.00000000       0.00000000       0.00000000       0.00000000       1.04264235
Au       0.00000000       0.00000000       3.41333333       0.00000000       0.00000000      -1.04264235
2
Properties=species:S:1:pos:R:3:forces:R:3 energy=-95.53713451060445 pbc="F F F"
Au       0.00000000       0.00000000       0.00000000       0.00000000       0.00000000       1.02135098
Au       0.00000000       0.00000000       3.47212121       0.00000000       0.00000000      -1.02135098
2
Properties=species:S:1:pos:R:3:forces:R:3 energy=-95.47760651289234 pbc="F F F"
Au       0.00000000       0.00000000       0.00000000       0.00000000       0.00000000       1.00429606
Au       0.00000000       0.00000000       3.53090909       0.00000000       0.00000000      -1.00429606
2
Properties=species:S:1:pos:R:3:forces:R:3 energy=-95.41901129831979 pbc="F F F"
Au       0.00000000       0.00000000       0.00000000       0.00000000       0.00000000       0.98949689
Au       0.00000000       0.00000000       3.58969697       0.00000000       0.00000000      -0.98949689
2
Properties=species:S:1:pos:R:3:forces:R:3 energy=-95.3612499928286 pbc="F F F"
Au       0.00000000       0.00000000       0.00000000       0.00000000       0.00000000       0.97550893
Au       0.00000000       0.00000000       3.64848485       0.00000000       0.00000000      -0.97550893
2
Properties=species:S:1:pos:R:3:forces:R:3 energy=-95.30431507235433 pbc="F F F"
Au       0.00000000       0.00000000       0.00000000       0.00000000       0.00000000       0.96127754
Au       0.00000000       0.00000000       3.70727273       0.00000000       0.00000000      -0.96127754
2
Properties=species:S:1:pos:R:3:forces:R:3 energy=-95.24824468466159 pbc="F F F"
Au       0.00000000       0.00000000       0.00000000       0.00000000       0.00000000       0.94601089
Au       0.00000000       0.00000000       3.76606061       0.00000000       0.00000000      -0.94601089
2
Properties=species:S:1:pos:R:3:forces:R:3 energy=-95.1931226572636 pbc="F F F"
Au       0.00000000       0.00000000       0.00000000       0.00000000       0.00000000       0.92902899
Au       0.00000000       0.00000000       3.82484848       0.00000000       0.00000000      -0.92902899
2
Properties=species:S:1:pos:R:3:forces:R:3 energy=-95.13906332020457 pbc="F F F"
Au       0.00000000       0.00000000       0.00000000       0.00000000       0.00000000       0.90967900
Au       0.00000000       0.00000000       3.88363636       0.00000000       0.00000000      -0.90967900
2
Properties=species:S:1:pos:R:3:forces:R:3 energy=-95.08622674504981 pbc="F F F"
Au       0.00000000       0.00000000       0.00000000       0.00000000       0.00000000       0.88733840
Au       0.00000000       0.00000000       3.94242424       0.00000000       0.00000000      -0.88733840
2
Properties=species:S:1:pos:R:3:forces:R:3 energy=-95.0348035153991 pbc="F F F"
Au       0.00000000       0.00000000       0.00000000       0.00000000       0.00000000       0.86151135
Au       0.00000000       0.00000000       4.00121212       0.00000000       0.00000000      -0.86151135
2
Properties=species:S:1:pos:R:3:forces:R:3 energy=-94.98500710620365 pbc="F F F"
Au       0.00000000       0.00000000       0.00000000       0.00000000       0.00000000       0.83194602
Au       0.00000000       0.00000000       4.06000000       0.00000000       0.00000000      -0.83194602
2
Properties=species:S:1:pos:R:3:forces:R:3 energy=-94.93705863289655 pbc="F F F"
Au       0.00000000       0.00000000       0.00000000       0.00000000       0.00000000       0.79872650
Au       0.00000000       0.00000000       4.11878788       0.00000000       0.00000000      -0.79872650
2
Properties=species:S:1:pos:R:3:forces:R:3 energy=-94.89115632906294 pbc="F F F"
Au       0.00000000       0.00000000       0.00000000       0.00000000       0.00000000       0.76228988
Au       0.00000000       0.00000000       4.17757576       0.00000000       0.00000000      -0.76228988
2
Properties=species:S:1:pos:R:3:forces:R:3 energy=-94.84747557653434 pbc="F F F"
Au       0.00000000       0.00000000       0.00000000       0.00000000       0.00000000       0.72333378
Au       0.00000000       0.00000000       4.23636364       0.00000000       0.00000000      -0.72333378
2
Properties=species:S:1:pos:R:3:forces:R:3 energy=-94.80614597919114 pbc="F F F"
Au       0.00000000       0.00000000       0.00000000       0.00000000       0.00000000       0.68267691
Au       0.00000000       0.00000000       4.29515152       0.00000000       0.00000000      -0.68267691
2
Properties=species:S:1:pos:R:3:forces:R:3 energy=-94.76722853971944 pbc="F F F"
Au       0.00000000       0.00000000       0.00000000       0.00000000       0.00000000       0.64113754
Au       0.00000000       0.00000000       4.35393939       0.00000000       0.00000000      -0.64113754
2
Properties=species:S:1:pos:R:3:forces:R:3 energy=-94.7307690115197 pbc="F F F"
Au       0.00000000       0.00000000       0.00000000       0.00000000       0.00000000       0.59939879
Au       0.00000000       0.00000000       4.41272727       0.00000000       0.00000000      -0.59939879
2
Properties=species:S:1:pos:R:3:forces:R:3 energy=-94.69674452937505 pbc="F F F"
Au       0.00000000       0.00000000       0.00000000       0.00000000       0.00000000       0.55801839
Au       0.00000000       0.00000000       4.47151515       0.00000000       0.00000000      -0.55801839
2
Properties=species:S:1:pos:R:3:forces:R:3 energy=-94.66513990022872 pbc="F F F"
Au       0.00000000       0.00000000       0.00000000       0.00000000       0.00000000       0.51738280
Au       0.00000000       0.00000000       4.53030303       0.00000000       0.00000000      -0.51738280
2
Properties=species:S:1:pos:R:3:forces:R:3 energy=-94.63589418712696 pbc="F F F"
Au       0.00000000       0.00000000       0.00000000       0.00000000       0.00000000       0.47776026
Au       0.00000000       0.00000000       4.58909091       0.00000000       0.00000000      -0.47776026
2
Properties=species:S:1:pos:R:3:forces:R:3 energy=-94.60894651488854 pbc="F F F"
Au       0.00000000       0.00000000       0.00000000       0.00000000       0.00000000       0.43928626
Au       0.00000000       0.00000000       4.64787879       0.00000000       0.00000000      -0.43928626
2
Properties=species:S:1:pos:R:3:forces:R:3 energy=-94.58422078201333 pbc="F F F"
Au       0.00000000       0.00000000       0.00000000       0.00000000       0.00000000       0.40200156
Au       0.00000000       0.00000000       4.70666667       0.00000000       0.00000000      -0.40200156
2
Properties=species:S:1:pos:R:3:forces:R:3 energy=-94.56165620597892 pbc="F F F"
Au       0.00000000       0.00000000       0.00000000       0.00000000       0.00000000       0.36595106
Au       0.00000000       0.00000000       4.76545455       0.00000000       0.00000000      -0.36595106
2
Properties=species:S:1:pos:R:3:forces:R:3 energy=-94.54116914458965 pbc="F F F"
Au       0.00000000       0.00000000       0.00000000       0.00000000       0.00000000       0.33130091
Au       0.00000000       0.00000000       4.82424242       0.00000000       0.00000000      -0.33130091
2
Properties=species:S:1:pos:R:3:forces:R:3 energy=-94.5226684022831 pbc="F F F"
Au       0.00000000       0.00000000       0.00000000       0.00000000       0.00000000       0.29855287
Au       0.00000000       0.00000000       4.88303030       0.00000000       0.00000000      -0.29855287
2
Properties=species:S:1:pos:R:3:forces:R:3 energy=-94.50600939040643 pbc="F F F"
Au       0.00000000       0.00000000       0.00000000       0.00000000       0.00000000       0.26864463
Au       0.00000000       0.00000000       4.94181818       0.00000000       0.00000000      -0.26864463
2
Properties=species:S:1:pos:R:3:forces:R:3 energy=-94.49100180808799 pbc="F F F"
Au       0.00000000       0.00000000       0.00000000       0.00000000       0.00000000       0.24290878
Au       0.00000000       0.00000000       5.00060606       0.00000000       0.00000000      -0.24290878
2
Properties=species:S:1:pos:R:3:forces:R:3 energy=-94.47734094600833 pbc="F F F"
Au       0.00000000       0.00000000       0.00000000       0.00000000       0.00000000       0.22267504
Au       0.00000000       0.00000000       5.05939394       0.00000000       0.00000000      -0.22267504
2
Properties=species:S:1:pos:R:3:forces:R:3 energy=-94.46469923200699 pbc="F F F"
Au       0.00000000       0.00000000       0.00000000       0.00000000       0.00000000       0.20854373
Au       0.00000000       0.00000000       5.11818182       0.00000000       0.00000000      -0.20854373
2
Properties=species:S:1:pos:R:3:forces:R:3 energy=-94.45272624296186 pbc="F F F"
Au       0.00000000       0.00000000       0.00000000       0.00000000       0.00000000       0.19944344
Au       0.00000000       0.00000000       5.17696970       0.00000000       0.00000000      -0.19944344
2
Properties=species:S:1:pos:R:3:forces:R:3 energy=-94.44121653246184 pbc="F F F"
Au       0.00000000       0.00000000       0.00000000       0.00000000       0.00000000       0.19182049
Au       0.00000000       0.00000000       5.23575758       0.00000000       0.00000000      -0.19182049
2
Properties=species:S:1:pos:R:3:forces:R:3 energy=-94.43025458653119 pbc="F F F"
Au       0.00000000       0.00000000       0.00000000       0.00000000       0.00000000       0.17998311
Au       0.00000000       0.00000000       5.29454545       0.00000000       0.00000000      -0.17998311
2
Properties=species:S:1:pos:R:3:forces:R:3 energy=-94.42022244193664 pbc="F F F"
Au       0.00000000       0.00000000       0.00000000       0.00000000       0.00000000       0.15988958
Au       0.00000000       0.00000000       5.35333333       0.00000000       0.00000000      -0.15988958
2
Properties=species:S:1:pos:R:3:forces:R:3 energy=-94.41149451713778 pbc="F F F"
Au       0.00000000       0.00000000       0.00000000       0.00000000       0.00000000       0.13845786
Au       0.00000000       0.00000000       5.41212121       0.00000000       0.00000000      -0.13845786
2
Properties=species:S:1:pos:R:3:forces:R:3 energy=-94.40357546536241 pbc="F F F"
Au       0.00000000       0.00000000       0.00000000       0.00000000       0.00000000       0.13491896
Au       0.00000000       0.00000000       5.47090909       0.00000000       0.00000000      -0.13491896
2
Properties=species:S:1:pos:R:3:forces:R:3 energy=-94.39532906396607 pbc="F F F"
Au       0.00000000       0.00000000       0.00000000       0.00000000       0.00000000       0.14479753
Au       0.00000000       0.00000000       5.52969697       0.00000000       0.00000000      -0.14479753
2
Properties=species:S:1:pos:R:3:forces:R:3 energy=-94.38702287474347 pbc="F F F"
Au       0.00000000       0.00000000       0.00000000       0.00000000       0.00000000       0.13255340
Au       0.00000000       0.00000000       5.58848485       0.00000000       0.00000000      -0.13255340
2
Properties=species:S:1:pos:R:3:forces:R:3 energy=-94.38014514321134 pbc="F F F"
Au       0.00000000       0.00000000       0.00000000       0.00000000       0.00000000       0.10114145
Au       0.00000000       0.00000000       5.64727273       0.00000000       0.00000000      -0.10114145
2
Properties=species:S:1:pos:R:3:forces:R:3 energy=-94.37476501740932 pbc="F F F"
Au       0.00000000       0.00000000       0.00000000       0.00000000       0.00000000       0.08761630
Au       0.00000000       0.00000000       5.70606061       0.00000000       0.00000000      -0.08761630
2
Properties=species:S:1:pos:R:3:forces:R:3 energy=-94.36922736419913 pbc="F F F"
Au       0.00000000       0.00000000       0.00000000       0.00000000       0.00000000       0.10258532
Au       0.00000000       0.00000000       5.76484848       0.00000000       0.00000000      -0.10258532
2
Properties=species:S:1:pos:R:3:forces:R:3 energy=-94.36305958283616 pbc="F F F"
Au       0.00000000       0.00000000       0.00000000       0.00000000       0.00000000       0.10097277
Au       0.00000000       0.00000000       5.82363636       0.00000000       0.00000000      -0.10097277
2
Properties=species:S:1:pos:R:3:forces:R:3 energy=-94.35813887263441 pbc="F F F"
Au       0.00000000       0.00000000       0.00000000       0.00000000       0.00000000       0.06257290
Au       0.00000000       0.00000000       5.88242424       0.00000000       0.00000000      -0.06257290
2
Properties=species:S:1:pos:R:3:forces:R:3 energy=-94.35577019426395 pbc="F F F"
Au       0.00000000       0.00000000       0.00000000       0.00000000       0.00000000       0.02008598
Au       0.00000000       0.00000000       5.94121212       0.00000000       0.00000000      -0.02008598
2
Properties=species:S:1:pos:R:3:forces:R:3 energy=-94.35525956742993 pbc="F F F"
Au       0.00000000       0.00000000       0.00000000       0.00000000       0.00000000       0.00293929
Au       0.00000000       0.00000000       6.00000000       0.00000000       0.00000000      -0.00293929
