2
Properties=species:S:1:pos:R:3:forces:R:3 energy=-2550.82773011239 pbc="F F F"
B        0.00000000       0.00000000       0.00000000       0.00000000       0.00000000    4968.56884766
B        0.00000000       0.00000000       0.18000000       0.00000000       0.00000000   -4968.56884766
2
Properties=species:S:1:pos:R:3:forces:R:3 energy=-1905.3494586280149 pbc="F F F"
B        0.00000000       0.00000000       0.00000000       0.00000000       0.00000000   16726.54296875
B        0.00000000       0.00000000       0.23878788       0.00000000       0.00000000  -16726.54296875
2
Properties=species:S:1:pos:R:3:forces:R:3 energy=-728.7077349952023 pbc="F F F"
B        0.00000000       0.00000000       0.00000000       0.00000000       0.00000000   20915.00195312
B        0.00000000       0.00000000       0.29757576       0.00000000       0.00000000  -20915.00195312
2
Properties=species:S:1:pos:R:3:forces:R:3 energy=-112.60303681365399 pbc="F F F"
B        0.00000000       0.00000000       0.00000000       0.00000000       0.00000000    5671.55566406
B        0.00000000       0.00000000       0.35636364       0.00000000       0.00000000   -5671.55566406
2
Properties=species:S:1:pos:R:3:forces:R:3 energy=-44.699483803432855 pbc="F F F"
B        0.00000000       0.00000000       0.00000000       0.00000000       0.00000000     777.01513672
B        0.00000000       0.00000000       0.41515152       0.00000000       0.00000000    -777.01513672
2
Properties=species:S:1:pos:R:3:forces:R:3 energy=-31.016746450197147 pbc="F F F"
B        0.00000000       0.00000000       0.00000000       0.00000000       0.00000000     538.39660645
B        0.00000000       0.00000000       0.47393939       0.00000000       0.00000000    -538.39660645
2
Properties=species:S:1:pos:R:3:forces:R:3 energy=3.1582296646169845 pbc="F F F"
B        0.00000000       0.00000000       0.00000000       0.00000000       0.00000000     506.28457642
B        0.00000000       0.00000000       0.53272727       0.00000000       0.00000000    -506.28457642
2
Properties=species:S:1:pos:R:3:forces:R:3 energy=23.77408989630668 pbc="F F F"
B        0.00000000       0.00000000       0.00000000       0.00000000       0.00000000     202.45405579
B        0.00000000       0.00000000       0.59151515       0.00000000       0.00000000    -202.45405579
2
Properties=species:S:1:pos:R:3:forces:R:3 energy=29.148939229227935 pbc="F F F"
B        0.00000000       0.00000000       0.00000000       0.00000000       0.00000000       3.19451904
B        0.00000000       0.00000000       0.65030303       0.00000000       0.00000000      -3.19451904
2
Properties=species:S:1:pos:R:3:forces:R:3 energy=24.56536495556679 pbc="F F F"
B        0.00000000       0.00000000       0.00000000       0.00000000       0.00000000    -176.69459534
B        0.00000000       0.00000000       0.70909091       0.00000000       0.00000000     176.69459534
2
Properties=species:S:1:pos:R:3:forces:R:3 energy=16.721746594300672 pbc="F F F"
B        0.00000000       0.00000000       0.00000000       0.00000000       0.00000000     -73.38334656
B        0.00000000       0.00000000       0.76787879       0.00000000       0.00000000      73.38334656
2
Properties=species:S:1:pos:R:3:forces:R:3 energy=15.377735333867376 pbc="F F F"
B        0.00000000       0.00000000       0.00000000       0.00000000       0.00000000      11.66031837
B        0.00000000       0.00000000       0.82666667       0.00000000       0.00000000     -11.66031837
2
Properties=species:S:1:pos:R:3:forces:R:3 energy=14.318273806367735 pbc="F F F"
B        0.00000000       0.00000000       0.00000000       0.00000000       0.00000000     -69.99772644
B        0.00000000       0.00000000       0.88545455       0.00000000       0.00000000      69.99772644
2
Properties=species:S:1:pos:R:3:forces:R:3 energy=6.924884197975226 pbc="F F F"
B        0.00000000       0.00000000       0.00000000       0.00000000       0.00000000    -165.27171326
B        0.00000000       0.00000000       0.94424242       0.00000000       0.00000000     165.27171326
2
Properties=species:S:1:pos:R:3:forces:R:3 energy=-1.5691158717687974 pbc="F F F"
B        0.00000000       0.00000000       0.00000000       0.00000000       0.00000000    -104.82349396
B        0.00000000       0.00000000       1.00303030       0.00000000       0.00000000     104.82349396
2
Properties=species:S:1:pos:R:3:forces:R:3 energy=-4.960122408059587 pbc="F F F"
B        0.00000000       0.00000000       0.00000000       0.00000000       0.00000000     -13.62786198
B        0.00000000       0.00000000       1.06181818       0.00000000       0.00000000      13.62786198
2
Properties=species:S:1:pos:R:3:forces:R:3 energy=-3.6447282584310803 pbc="F F F"
B        0.00000000       0.00000000       0.00000000       0.00000000       0.00000000      52.96936798
B        0.00000000       0.00000000       1.12060606       0.00000000       0.00000000     -52.96936798
2
Properties=species:S:1:pos:R:3:forces:R:3 energy=-1.4248908982719846 pbc="F F F"
B        0.00000000       0.00000000       0.00000000       0.00000000       0.00000000     -14.67515564
B        0.00000000       0.00000000       1.17939394       0.00000000       0.00000000      14.67515564
2
Properties=species:S:1:pos:R:3:forces:R:3 energy=-3.1874283702089854 pbc="F F F"
B        0.00000000       0.00000000       0.00000000       0.00000000       0.00000000     -23.48586464
B        0.00000000       0.00000000       1.23818182       0.00000000       0.00000000      23.48586464
2
Properties=species:S:1:pos:R:3:forces:R:3 energy=-4.1737107585194995 pbc="F F F"
B        0.00000000       0.00000000       0.00000000       0.00000000       0.00000000     -12.20018387
B        0.00000000       0.00000000       1.29696970       0.00000000       0.00000000      12.20018387
2
Properties=species:S:1:pos:R:3:forces:R:3 energy=-4.6705946242067675 pbc="F F F"
B        0.00000000       0.00000000       0.00000000       0.00000000       0.00000000      -4.94627523
B        0.00000000       0.00000000       1.35575758       0.00000000       0.00000000       4.94627523
2
Properties=species:S:1:pos:R:3:forces:R:3 energy=-4.8491196459801476 pbc="F F F"
B        0.00000000       0.00000000       0.00000000       0.00000000       0.00000000      -1.98330235
B        0.00000000       0.00000000       1.41454545       0.00000000       0.00000000       1.98330235
2
Properties=species:S:1:pos:R:3:forces:R:3 energy=-4.970519860116853 pbc="F F F"
B        0.00000000       0.00000000       0.00000000       0.00000000       0.00000000      -2.59199238
B        0.00000000       0.00000000       1.47333333       0.00000000       0.00000000       2.59199238
2
Properties=species:S:1:pos:R:3:forces:R:3 energy=-5.170781599413693 pbc="F F F"
B        0.00000000       0.00000000       0.00000000       0.00000000       0.00000000      -3.83381367
B        0.00000000       0.00000000       1.53212121       0.00000000       0.00000000       3.83381367
2
Properties=species:S:1:pos:R:3:forces:R:3 energy=-5.3429158962658665 pbc="F F F"
B        0.00000000       0.00000000       0.00000000       0.00000000       0.00000000      -1.52248788
B        0.00000000       0.00000000       1.59090909       0.00000000       0.00000000       1.52248788
2
Properties=species:S:1:pos:R:3:forces:R:3 energy=-5.345555915360499 pbc="F F F"
B        0.00000000       0.00000000       0.00000000       0.00000000       0.00000000       1.12606490
B        0.00000000       0.00000000       1.64969697       0.00000000       0.00000000      -1.12606490
2
Properties=species:S:1:pos:R:3:forces:R:3 energy=-5.26233090720039 pbc="F F F"
B        0.00000000       0.00000000       0.00000000       0.00000000       0.00000000       1.18070757
B        0.00000000       0.00000000       1.70848485       0.00000000       0.00000000      -1.18070757
2
Properties=species:S:1:pos:R:3:forces:R:3 energy=-5.273767921326793 pbc="F F F"
B        0.00000000       0.00000000       0.00000000       0.00000000       0.00000000      -2.00103235
B        0.00000000       0.00000000       1.76727273       0.00000000       0.00000000       2.00103235
2
Properties=species:S:1:pos:R:3:forces:R:3 energy=-5.464894790467307 pbc="F F F"
B        0.00000000       0.00000000       0.00000000       0.00000000       0.00000000      -3.42682672
B        0.00000000       0.00000000       1.82606061       0.00000000       0.00000000       3.42682672
2
Properties=species:S:1:pos:R:3:forces:R:3 energy=-5.546250091720894 pbc="F F F"
B        0.00000000       0.00000000       0.00000000       0.00000000       0.00000000       1.17835343
B        0.00000000       0.00000000       1.88484848       0.00000000       0.00000000      -1.17835343
2
Properties=species:S:1:pos:R:3:forces:R:3 energy=-5.368120936796358 pbc="F F F"
B        0.00000000       0.00000000       0.00000000       0.00000000       0.00000000       3.91590548
B        0.00000000       0.00000000       1.94363636       0.00000000       0.00000000      -3.91590548
2
Properties=species:S:1:pos:R:3:forces:R:3 energy=-5.196625248002499 pbc="F F F"
B        0.00000000       0.00000000       0.00000000       0.00000000       0.00000000       1.33116126
B        0.00000000       0.00000000       2.00242424       0.00000000       0.00000000      -1.33116126
2
Properties=species:S:1:pos:R:3:forces:R:3 energy=-5.222327118189944 pbc="F F F"
B        0.00000000       0.00000000       0.00000000       0.00000000       0.00000000      -1.89976144
B        0.00000000       0.00000000       2.06121212       0.00000000       0.00000000       1.89976144
2
Properties=species:S:1:pos:R:3:forces:R:3 energy=-5.365657397331827 pbc="F F F"
B        0.00000000       0.00000000       0.00000000       0.00000000       0.00000000      -2.50282001
B        0.00000000       0.00000000       2.12000000       0.00000000       0.00000000       2.50282001
2
Properties=species:S:1:pos:R:3:forces:R:3 energy=-5.474648189631399 pbc="F F F"
B        0.00000000       0.00000000       0.00000000       0.00000000       0.00000000      -0.98780072
B        0.00000000       0.00000000       2.17878788       0.00000000       0.00000000       0.98780072
2
Properties=species:S:1:pos:R:3:forces:R:3 energy=-5.469765906374669 pbc="F F F"
B        0.00000000       0.00000000       0.00000000       0.00000000       0.00000000       1.16635847
B        0.00000000       0.00000000       2.23757576       0.00000000       0.00000000      -1.16635847
2
Properties=species:S:1:pos:R:3:forces:R:3 energy=-5.344696379972344 pbc="F F F"
B        0.00000000       0.00000000       0.00000000       0.00000000       0.00000000       2.95907617
B        0.00000000       0.00000000       2.29636364       0.00000000       0.00000000      -2.95907617
2
Properties=species:S:1:pos:R:3:forces:R:3 energy=-5.1416864201098225 pbc="F F F"
B        0.00000000       0.00000000       0.00000000       0.00000000       0.00000000       3.77183366
B        0.00000000       0.00000000       2.35515152       0.00000000       0.00000000      -3.77183366
2
Properties=species:S:1:pos:R:3:forces:R:3 energy=-4.917997528976285 pbc="F F F"
B        0.00000000       0.00000000       0.00000000       0.00000000       0.00000000       3.73951650
B        0.00000000       0.00000000       2.41393939       0.00000000       0.00000000      -3.73951650
2
Properties=species:S:1:pos:R:3:forces:R:3 energy=-4.708947231182867 pbc="F F F"
B        0.00000000       0.00000000       0.00000000       0.00000000       0.00000000       3.34320831
B        0.00000000       0.00000000       2.47272727       0.00000000       0.00000000      -3.34320831
2
Properties=species:S:1:pos:R:3:forces:R:3 energy=-4.526461784833379 pbc="F F F"
B        0.00000000       0.00000000       0.00000000       0.00000000       0.00000000       2.86189795
B        0.00000000       0.00000000       2.53151515       0.00000000       0.00000000      -2.86189795
2
Properties=species:S:1:pos:R:3:forces:R:3 energy=-4.372191056391002 pbc="F F F"
B        0.00000000       0.00000000       0.00000000       0.00000000       0.00000000       2.39289999
B        0.00000000       0.00000000       2.59030303       0.00000000       0.00000000      -2.39289999
2
Properties=species:S:1:pos:R:3:forces:R:3 energy=-4.244014306059171 pbc="F F F"
B        0.00000000       0.00000000       0.00000000       0.00000000       0.00000000       1.97965539
B        0.00000000       0.00000000       2.64909091       0.00000000       0.00000000      -1.97965539
2
Properties=species:S:1:pos:R:3:forces:R:3 energy=-4.137815103901279 pbc="F F F"
B        0.00000000       0.00000000       0.00000000       0.00000000       0.00000000       1.64823282
B        0.00000000       0.00000000       2.70787879       0.00000000       0.00000000      -1.64823282
2
Properties=species:S:1:pos:R:3:forces:R:3 energy=-4.04842619450903 pbc="F F F"
B        0.00000000       0.00000000       0.00000000       0.00000000       0.00000000       1.40780056
B        0.00000000       0.00000000       2.76666667       0.00000000       0.00000000      -1.40780056
2
Properties=species:S:1:pos:R:3:forces:R:3 energy=-3.9706486674880006 pbc="F F F"
B        0.00000000       0.00000000       0.00000000       0.00000000       0.00000000       1.25082374
B        0.00000000       0.00000000       2.82545455       0.00000000       0.00000000      -1.25082374
2
Properties=species:S:1:pos:R:3:forces:R:3 energy=-3.900087434763523 pbc="F F F"
B        0.00000000       0.00000000       0.00000000       0.00000000       0.00000000       1.15879130
B        0.00000000       0.00000000       2.88424242       0.00000000       0.00000000      -1.15879130
2
Properties=species:S:1:pos:R:3:forces:R:3 energy=-3.833540865935603 pbc="F F F"
B        0.00000000       0.00000000       0.00000000       0.00000000       0.00000000       1.11087811
B        0.00000000       0.00000000       2.94303030       0.00000000       0.00000000      -1.11087811
2
Properties=species:S:1:pos:R:3:forces:R:3 energy=-3.768944539709228 pbc="F F F"
B        0.00000000       0.00000000       0.00000000       0.00000000       0.00000000       1.09019029
B        0.00000000       0.00000000       3.00181818       0.00000000       0.00000000      -1.09019029
2
Properties=species:S:1:pos:R:3:forces:R:3 energy=-3.705055601454304 pbc="F F F"
B        0.00000000       0.00000000       0.00000000       0.00000000       0.00000000       1.08527040
B        0.00000000       0.00000000       3.06060606       0.00000000       0.00000000      -1.08527040
2
Properties=species:S:1:pos:R:3:forces:R:3 energy=-3.64118001789485 pbc="F F F"
B        0.00000000       0.00000000       0.00000000       0.00000000       0.00000000       1.08870327
B        0.00000000       0.00000000       3.11939394       0.00000000       0.00000000      -1.08870327
2
Properties=species:S:1:pos:R:3:forces:R:3 energy=-3.5769875856744178 pbc="F F F"
B        0.00000000       0.00000000       0.00000000       0.00000000       0.00000000       1.09536302
B        0.00000000       0.00000000       3.17818182       0.00000000       0.00000000      -1.09536302
2
Properties=species:S:1:pos:R:3:forces:R:3 energy=-3.5124065440084826 pbc="F F F"
B        0.00000000       0.00000000       0.00000000       0.00000000       0.00000000       1.10134482
B        0.00000000       0.00000000       3.23696970       0.00000000       0.00000000      -1.10134482
2
Properties=species:S:1:pos:R:3:forces:R:3 energy=-3.447571616857221 pbc="F F F"
B        0.00000000       0.00000000       0.00000000       0.00000000       0.00000000       1.10354459
B        0.00000000       0.00000000       3.29575758       0.00000000       0.00000000      -1.10354459
2
Properties=species:S:1:pos:R:3:forces:R:3 energy=-3.3827787236909033 pbc="F F F"
B        0.00000000       0.00000000       0.00000000       0.00000000       0.00000000       1.09952080
B        0.00000000       0.00000000       3.35454545       0.00000000       0.00000000      -1.09952080
2
Properties=species:S:1:pos:R:3:forces:R:3 energy=-3.3184513458391756 pbc="F F F"
B        0.00000000       0.00000000       0.00000000       0.00000000       0.00000000       1.08751273
B        0.00000000       0.00000000       3.41333333       0.00000000       0.00000000      -1.08751273
2
Properties=species:S:1:pos:R:3:forces:R:3 energy=-3.255089789267131 pbc="F F F"
B        0.00000000       0.00000000       0.00000000       0.00000000       0.00000000       1.06650400
B        0.00000000       0.00000000       3.47212121       0.00000000       0.00000000      -1.06650400
2
Properties=species:S:1:pos:R:3:forces:R:3 energy=-3.1932358653634703 pbc="F F F"
B        0.00000000       0.00000000       0.00000000       0.00000000       0.00000000       1.03635049
B        0.00000000       0.00000000       3.53090909       0.00000000       0.00000000      -1.03635049
2
Properties=species:S:1:pos:R:3:forces:R:3 energy=-3.133404969363901 pbc="F F F"
B        0.00000000       0.00000000       0.00000000       0.00000000       0.00000000       0.99785787
B        0.00000000       0.00000000       3.58969697       0.00000000       0.00000000      -0.99785787
2
Properties=species:S:1:pos:R:3:forces:R:3 energy=-3.0760403055678616 pbc="F F F"
B        0.00000000       0.00000000       0.00000000       0.00000000       0.00000000       0.95279902
B        0.00000000       0.00000000       3.64848485       0.00000000       0.00000000      -0.95279902
2
Properties=species:S:1:pos:R:3:forces:R:3 energy=-3.021458532654221 pbc="F F F"
B        0.00000000       0.00000000       0.00000000       0.00000000       0.00000000       0.90369880
B        0.00000000       0.00000000       3.70727273       0.00000000       0.00000000      -0.90369880
2
Properties=species:S:1:pos:R:3:forces:R:3 energy=-2.9698092333147854 pbc="F F F"
B        0.00000000       0.00000000       0.00000000       0.00000000       0.00000000       0.85347915
B        0.00000000       0.00000000       3.76606061       0.00000000       0.00000000      -0.85347915
2
Properties=species:S:1:pos:R:3:forces:R:3 energy=-2.921075402178832 pbc="F F F"
B        0.00000000       0.00000000       0.00000000       0.00000000       0.00000000       0.80499053
B        0.00000000       0.00000000       3.82484848       0.00000000       0.00000000      -0.80499053
2
Properties=species:S:1:pos:R:3:forces:R:3 energy=-2.8750827385940103 pbc="F F F"
B        0.00000000       0.00000000       0.00000000       0.00000000       0.00000000       0.76051635
B        0.00000000       0.00000000       3.88363636       0.00000000       0.00000000      -0.76051635
2
Properties=species:S:1:pos:R:3:forces:R:3 energy=-2.8315513921695126 pbc="F F F"
B        0.00000000       0.00000000       0.00000000       0.00000000       0.00000000       0.72140491
B        0.00000000       0.00000000       3.94242424       0.00000000       0.00000000      -0.72140491
2
Properties=species:S:1:pos:R:3:forces:R:3 energy=-2.7901529372929055 pbc="F F F"
B        0.00000000       0.00000000       0.00000000       0.00000000       0.00000000       0.68791687
B        0.00000000       0.00000000       4.00121212       0.00000000       0.00000000      -0.68791687
2
Properties=species:S:1:pos:R:3:forces:R:3 energy=-2.75057379761988 pbc="F F F"
B        0.00000000       0.00000000       0.00000000       0.00000000       0.00000000       0.65927494
B        0.00000000       0.00000000       4.06000000       0.00000000       0.00000000      -0.65927494
2
Properties=species:S:1:pos:R:3:forces:R:3 energy=-2.7125736491226657 pbc="F F F"
B        0.00000000       0.00000000       0.00000000       0.00000000       0.00000000       0.63391256
B        0.00000000       0.00000000       4.11878788       0.00000000       0.00000000      -0.63391256
2
Properties=species:S:1:pos:R:3:forces:R:3 energy=-2.6760164156932467 pbc="F F F"
B        0.00000000       0.00000000       0.00000000       0.00000000       0.00000000       0.60979760
B        0.00000000       0.00000000       4.17757576       0.00000000       0.00000000      -0.60979760
2
Properties=species:S:1:pos:R:3:forces:R:3 energy=-2.6408938599114054 pbc="F F F"
B        0.00000000       0.00000000       0.00000000       0.00000000       0.00000000       0.58475631
B        0.00000000       0.00000000       4.23636364       0.00000000       0.00000000      -0.58475631
2
Properties=species:S:1:pos:R:3:forces:R:3 energy=-2.6073208039817386 pbc="F F F"
B        0.00000000       0.00000000       0.00000000       0.00000000       0.00000000       0.55675060
B        0.00000000       0.00000000       4.29515152       0.00000000       0.00000000      -0.55675060
2
Properties=species:S:1:pos:R:3:forces:R:3 energy=-2.5755244104010666 pbc="F F F"
B        0.00000000       0.00000000       0.00000000       0.00000000       0.00000000       0.52415013
B        0.00000000       0.00000000       4.35393939       0.00000000       0.00000000      -0.52415013
2
Properties=species:S:1:pos:R:3:forces:R:3 energy=-2.5458040892272984 pbc="F F F"
B        0.00000000       0.00000000       0.00000000       0.00000000       0.00000000       0.48596957
B        0.00000000       0.00000000       4.41272727       0.00000000       0.00000000      -0.48596957
2
Properties=species:S:1:pos:R:3:forces:R:3 energy=-2.5184986042350737 pbc="F F F"
B        0.00000000       0.00000000       0.00000000       0.00000000       0.00000000       0.44205049
B        0.00000000       0.00000000       4.47151515       0.00000000       0.00000000      -0.44205049
2
Properties=species:S:1:pos:R:3:forces:R:3 energy=-2.4939283601764837 pbc="F F F"
B        0.00000000       0.00000000       0.00000000       0.00000000       0.00000000       0.39310402
B        0.00000000       0.00000000       4.53030303       0.00000000       0.00000000      -0.39310402
2
Properties=species:S:1:pos:R:3:forces:R:3 energy=-2.4723488984868625 pbc="F F F"
B        0.00000000       0.00000000       0.00000000       0.00000000       0.00000000       0.34061480
B        0.00000000       0.00000000       4.58909091       0.00000000       0.00000000      -0.34061480
2
Properties=species:S:1:pos:R:3:forces:R:3 energy=-2.453911546339897 pbc="F F F"
B        0.00000000       0.00000000       0.00000000       0.00000000       0.00000000       0.28657559
B        0.00000000       0.00000000       4.64787879       0.00000000       0.00000000      -0.28657559
2
Properties=species:S:1:pos:R:3:forces:R:3 energy=-2.4386414797624876 pbc="F F F"
B        0.00000000       0.00000000       0.00000000       0.00000000       0.00000000       0.23319280
B        0.00000000       0.00000000       4.70666667       0.00000000       0.00000000      -0.23319280
2
Properties=species:S:1:pos:R:3:forces:R:3 energy=-2.4264381810689923 pbc="F F F"
B        0.00000000       0.00000000       0.00000000       0.00000000       0.00000000       0.18261157
B        0.00000000       0.00000000       4.76545455       0.00000000       0.00000000      -0.18261157
2
Properties=species:S:1:pos:R:3:forces:R:3 energy=-2.4170785474102465 pbc="F F F"
B        0.00000000       0.00000000       0.00000000       0.00000000       0.00000000       0.13673387
B        0.00000000       0.00000000       4.82424242       0.00000000       0.00000000      -0.13673387
2
Properties=species:S:1:pos:R:3:forces:R:3 energy=-2.410237377348342 pbc="F F F"
B        0.00000000       0.00000000       0.00000000       0.00000000       0.00000000       0.09722289
B        0.00000000       0.00000000       4.88303030       0.00000000       0.00000000      -0.09722289
2
Properties=species:S:1:pos:R:3:forces:R:3 energy=-2.4054933253814372 pbc="F F F"
B        0.00000000       0.00000000       0.00000000       0.00000000       0.00000000       0.06559400
B        0.00000000       0.00000000       4.94181818       0.00000000       0.00000000      -0.06559400
2
Properties=species:S:1:pos:R:3:forces:R:3 energy=-2.402340593957603 pbc="F F F"
B        0.00000000       0.00000000       0.00000000       0.00000000       0.00000000       0.04333165
B        0.00000000       0.00000000       5.00060606       0.00000000       0.00000000      -0.04333165
2
Properties=species:S:1:pos:R:3:forces:R:3 energy=-2.400189406748177 pbc="F F F"
B        0.00000000       0.00000000       0.00000000       0.00000000       0.00000000       0.03170709
B        0.00000000       0.00000000       5.05939394       0.00000000       0.00000000      -0.03170709
2
Properties=species:S:1:pos:R:3:forces:R:3 energy=-2.3983931812381853 pbc="F F F"
B        0.00000000       0.00000000       0.00000000       0.00000000       0.00000000       0.03122841
B        0.00000000       0.00000000       5.11818182       0.00000000       0.00000000      -0.03122841
2
Properties=species:S:1:pos:R:3:forces:R:3 energy=-2.3963210202496965 pbc="F F F"
B        0.00000000       0.00000000       0.00000000       0.00000000       0.00000000       0.04072729
B        0.00000000       0.00000000       5.17696970       0.00000000       0.00000000      -0.04072729
2
Properties=species:S:1:pos:R:3:forces:R:3 energy=-2.3934790612569095 pbc="F F F"
B        0.00000000       0.00000000       0.00000000       0.00000000       0.00000000       0.05657159
B        0.00000000       0.00000000       5.23575758       0.00000000       0.00000000      -0.05657159
2
Properties=species:S:1:pos:R:3:forces:R:3 energy=-2.3896618832712573 pbc="F F F"
B        0.00000000       0.00000000       0.00000000       0.00000000       0.00000000       0.07281020
B        0.00000000       0.00000000       5.29454545       0.00000000       0.00000000      -0.07281020
2
Properties=species:S:1:pos:R:3:forces:R:3 energy=-2.3850330935090813 pbc="F F F"
B        0.00000000       0.00000000       0.00000000       0.00000000       0.00000000       0.08334771
B        0.00000000       0.00000000       5.35333333       0.00000000       0.00000000      -0.08334771
2
Properties=species:S:1:pos:R:3:forces:R:3 energy=-2.3800073101949724 pbc="F F F"
B        0.00000000       0.00000000       0.00000000       0.00000000       0.00000000       0.08677666
B        0.00000000       0.00000000       5.41212121       0.00000000       0.00000000      -0.08677666
2
Properties=species:S:1:pos:R:3:forces:R:3 energy=-2.3748424798587737 pbc="F F F"
B        0.00000000       0.00000000       0.00000000       0.00000000       0.00000000       0.08952013
B        0.00000000       0.00000000       5.47090909       0.00000000       0.00000000      -0.08952013
2
Properties=species:S:1:pos:R:3:forces:R:3 energy=-2.3694241055516625 pbc="F F F"
B        0.00000000       0.00000000       0.00000000       0.00000000       0.00000000       0.09449925
B        0.00000000       0.00000000       5.52969697       0.00000000       0.00000000      -0.09449925
2
Properties=species:S:1:pos:R:3:forces:R:3 energy=-2.3638973008349917 pbc="F F F"
B        0.00000000       0.00000000       0.00000000       0.00000000       0.00000000       0.09150247
B        0.00000000       0.00000000       5.58848485       0.00000000       0.00000000      -0.09150247
2
Properties=species:S:1:pos:R:3:forces:R:3 energy=-2.358864209471274 pbc="F F F"
B        0.00000000       0.00000000       0.00000000       0.00000000       0.00000000       0.07879446
B        0.00000000       0.00000000       5.64727273       0.00000000       0.00000000      -0.07879446
2
Properties=species:S:1:pos:R:3:forces:R:3 energy=-2.3546410889739358 pbc="F F F"
B        0.00000000       0.00000000       0.00000000       0.00000000       0.00000000       0.06557177
B        0.00000000       0.00000000       5.70606061       0.00000000       0.00000000      -0.06557177
2
Properties=species:S:1:pos:R:3:forces:R:3 energy=-2.3510685373379068 pbc="F F F"
B        0.00000000       0.00000000       0.00000000       0.00000000       0.00000000       0.05584197
B        0.00000000       0.00000000       5.76484848       0.00000000       0.00000000      -0.05584197
2
Properties=species:S:1:pos:R:3:forces:R:3 energy=-2.348172634986064 pbc="F F F"
B        0.00000000       0.00000000       0.00000000       0.00000000       0.00000000       0.04143796
B        0.00000000       0.00000000       5.82363636       0.00000000       0.00000000      -0.04143796
2
Properties=species:S:1:pos:R:3:forces:R:3 energy=-2.346311565265768 pbc="F F F"
B        0.00000000       0.00000000       0.00000000       0.00000000       0.00000000       0.02197840
B        0.00000000       0.00000000       5.88242424       0.00000000       0.00000000      -0.02197840
2
Properties=species:S:1:pos:R:3:forces:R:3 energy=-2.345499470544901 pbc="F F F"
B        0.00000000       0.00000000       0.00000000       0.00000000       0.00000000       0.00683989
B        0.00000000       0.00000000       5.94121212       0.00000000       0.00000000      -0.00683989
2
Properties=species:S:1:pos:R:3:forces:R:3 energy=-2.3453160903824575 pbc="F F F"
B        0.00000000       0.00000000       0.00000000       0.00000000       0.00000000       0.00124862
B        0.00000000       0.00000000       6.00000000       0.00000000       0.00000000      -0.00124862
