2
Properties=species:S:1:pos:R:3:forces:R:3 energy=65519.04992715881 pbc="F F F"
Br       0.00000000       0.00000000       0.00000000       0.00000000       0.00000000 -102319.74218750
Br       0.00000000       0.00000000       0.18000000       0.00000000       0.00000000  102319.74218750
2
Properties=species:S:1:pos:R:3:forces:R:3 energy=60593.96008340881 pbc="F F F"
Br       0.00000000       0.00000000       0.00000000       0.00000000       0.00000000  -79482.11718750
Br       0.00000000       0.00000000       0.23878788       0.00000000       0.00000000   79482.11718750
2
Properties=species:S:1:pos:R:3:forces:R:3 energy=55084.65539590881 pbc="F F F"
Br       0.00000000       0.00000000       0.00000000       0.00000000       0.00000000 -114216.77343750
Br       0.00000000       0.00000000       0.29757576       0.00000000       0.00000000  114216.77343750
2
Properties=species:S:1:pos:R:3:forces:R:3 energy=46680.69445840881 pbc="F F F"
Br       0.00000000       0.00000000       0.00000000       0.00000000       0.00000000 -173433.26562500
Br       0.00000000       0.00000000       0.35636364       0.00000000       0.00000000  173433.26562500
2
Properties=species:S:1:pos:R:3:forces:R:3 energy=34855.6710209104 pbc="F F F"
Br       0.00000000       0.00000000       0.00000000       0.00000000       0.00000000 -223865.68750000
Br       0.00000000       0.00000000       0.41515152       0.00000000       0.00000000  223865.68750000
2
Properties=species:S:1:pos:R:3:forces:R:3 energy=21261.237427161977 pbc="F F F"
Br       0.00000000       0.00000000       0.00000000       0.00000000       0.00000000 -222260.46875000
Br       0.00000000       0.00000000       0.47393939       0.00000000       0.00000000  222260.46875000
2
Properties=species:S:1:pos:R:3:forces:R:3 energy=10754.28918497844 pbc="F F F"
Br       0.00000000       0.00000000       0.00000000       0.00000000       0.00000000 -138071.92187500
Br       0.00000000       0.00000000       0.53272727       0.00000000       0.00000000  138071.92187500
2
Properties=species:S:1:pos:R:3:forces:R:3 energy=4868.272095141025 pbc="F F F"
Br       0.00000000       0.00000000       0.00000000       0.00000000       0.00000000  -75015.07812500
Br       0.00000000       0.00000000       0.59151515       0.00000000       0.00000000   75015.07812500
2
Properties=species:S:1:pos:R:3:forces:R:3 energy=2183.341675230237 pbc="F F F"
Br       0.00000000       0.00000000       0.00000000       0.00000000       0.00000000  -21871.52929688
Br       0.00000000       0.00000000       0.65030303       0.00000000       0.00000000   21871.52929688
2
Properties=species:S:1:pos:R:3:forces:R:3 energy=1221.2922367703054 pbc="F F F"
Br       0.00000000       0.00000000       0.00000000       0.00000000       0.00000000   -9571.36132812
Br       0.00000000       0.00000000       0.70909091       0.00000000       0.00000000    9571.36132812
2
Properties=species:S:1:pos:R:3:forces:R:3 energy=769.557129372189 pbc="F F F"
Br       0.00000000       0.00000000       0.00000000       0.00000000       0.00000000   -7258.93164062
Br       0.00000000       0.00000000       0.76787879       0.00000000       0.00000000    7258.93164062
2
Properties=species:S:1:pos:R:3:forces:R:3 energy=399.7433171535516 pbc="F F F"
Br       0.00000000       0.00000000       0.00000000       0.00000000       0.00000000   -4992.12939453
Br       0.00000000       0.00000000       0.82666667       0.00000000       0.00000000    4992.12939453
2
Properties=species:S:1:pos:R:3:forces:R:3 energy=237.8753667663675 pbc="F F F"
Br       0.00000000       0.00000000       0.00000000       0.00000000       0.00000000     136.78279114
Br       0.00000000       0.00000000       0.88545455       0.00000000       0.00000000    -136.78279114
2
Properties=species:S:1:pos:R:3:forces:R:3 energy=225.79324403649306 pbc="F F F"
Br       0.00000000       0.00000000       0.00000000       0.00000000       0.00000000    -430.84686279
Br       0.00000000       0.00000000       0.94424242       0.00000000       0.00000000     430.84686279
2
Properties=species:S:1:pos:R:3:forces:R:3 energy=192.5352790491808 pbc="F F F"
Br       0.00000000       0.00000000       0.00000000       0.00000000       0.00000000    -667.62792969
Br       0.00000000       0.00000000       1.00303030       0.00000000       0.00000000     667.62792969
2
Properties=species:S:1:pos:R:3:forces:R:3 energy=151.0391549162351 pbc="F F F"
Br       0.00000000       0.00000000       0.00000000       0.00000000       0.00000000    -718.20642090
Br       0.00000000       0.00000000       1.06181818       0.00000000       0.00000000     718.20642090
2
Properties=species:S:1:pos:R:3:forces:R:3 energy=110.18744763672096 pbc="F F F"
Br       0.00000000       0.00000000       0.00000000       0.00000000       0.00000000    -650.67089844
Br       0.00000000       0.00000000       1.12060606       0.00000000       0.00000000     650.67089844
2
Properties=species:S:1:pos:R:3:forces:R:3 energy=75.65448888359697 pbc="F F F"
Br       0.00000000       0.00000000       0.00000000       0.00000000       0.00000000    -521.13897705
Br       0.00000000       0.00000000       1.17939394       0.00000000       0.00000000     521.13897705
2
Properties=species:S:1:pos:R:3:forces:R:3 energy=48.88877263022179 pbc="F F F"
Br       0.00000000       0.00000000       0.00000000       0.00000000       0.00000000    -392.44079590
Br       0.00000000       0.00000000       1.23818182       0.00000000       0.00000000     392.44079590
2
Properties=species:S:1:pos:R:3:forces:R:3 energy=28.93270306486334 pbc="F F F"
Br       0.00000000       0.00000000       0.00000000       0.00000000       0.00000000    -291.84634399
Br       0.00000000       0.00000000       1.29696970       0.00000000       0.00000000     291.84634399
2
Properties=species:S:1:pos:R:3:forces:R:3 energy=14.149302054738628 pbc="F F F"
Br       0.00000000       0.00000000       0.00000000       0.00000000       0.00000000    -213.31289673
Br       0.00000000       0.00000000       1.35575758       0.00000000       0.00000000     213.31289673
2
Properties=species:S:1:pos:R:3:forces:R:3 energy=3.5624076628594312 pbc="F F F"
Br       0.00000000       0.00000000       0.00000000       0.00000000       0.00000000    -150.11349487
Br       0.00000000       0.00000000       1.41454545       0.00000000       0.00000000     150.11349487
2
Properties=species:S:1:pos:R:3:forces:R:3 energy=-3.93699269077535 pbc="F F F"
Br       0.00000000       0.00000000       0.00000000       0.00000000       0.00000000    -108.57673645
Br       0.00000000       0.00000000       1.47333333       0.00000000       0.00000000     108.57673645
2
Properties=species:S:1:pos:R:3:forces:R:3 energy=-9.522959803148296 pbc="F F F"
Br       0.00000000       0.00000000       0.00000000       0.00000000       0.00000000     -83.23976135
Br       0.00000000       0.00000000       1.53212121       0.00000000       0.00000000      83.23976135
2
Properties=species:S:1:pos:R:3:forces:R:3 energy=-13.8518542703858 pbc="F F F"
Br       0.00000000       0.00000000       0.00000000       0.00000000       0.00000000     -64.68013000
Br       0.00000000       0.00000000       1.59090909       0.00000000       0.00000000      64.68013000
2
Properties=species:S:1:pos:R:3:forces:R:3 energy=-17.185684727009875 pbc="F F F"
Br       0.00000000       0.00000000       0.00000000       0.00000000       0.00000000     -49.18120956
Br       0.00000000       0.00000000       1.64969697       0.00000000       0.00000000      49.18120956
2
Properties=species:S:1:pos:R:3:forces:R:3 energy=-19.688511727658017 pbc="F F F"
Br       0.00000000       0.00000000       0.00000000       0.00000000       0.00000000     -36.45323181
Br       0.00000000       0.00000000       1.70848485       0.00000000       0.00000000      36.45323181
2
Properties=species:S:1:pos:R:3:forces:R:3 energy=-21.5302838090294 pbc="F F F"
Br       0.00000000       0.00000000       0.00000000       0.00000000       0.00000000     -26.69448090
Br       0.00000000       0.00000000       1.76727273       0.00000000       0.00000000      26.69448090
2
Properties=species:S:1:pos:R:3:forces:R:3 energy=-22.88013887752665 pbc="F F F"
Br       0.00000000       0.00000000       0.00000000       0.00000000       0.00000000     -19.62639999
Br       0.00000000       0.00000000       1.82606061       0.00000000       0.00000000      19.62639999
2
Properties=species:S:1:pos:R:3:forces:R:3 energy=-23.877320962846415 pbc="F F F"
Br       0.00000000       0.00000000       0.00000000       0.00000000       0.00000000     -14.57267380
Br       0.00000000       0.00000000       1.88484848       0.00000000       0.00000000      14.57267380
2
Properties=species:S:1:pos:R:3:forces:R:3 energy=-24.619652194923084 pbc="F F F"
Br       0.00000000       0.00000000       0.00000000       0.00000000       0.00000000     -10.85954952
Br       0.00000000       0.00000000       1.94363636       0.00000000       0.00000000      10.85954952
2
Properties=species:S:1:pos:R:3:forces:R:3 energy=-25.171131680089957 pbc="F F F"
Br       0.00000000       0.00000000       0.00000000       0.00000000       0.00000000      -8.01942348
Br       0.00000000       0.00000000       2.00242424       0.00000000       0.00000000       8.01942348
2
Properties=species:S:1:pos:R:3:forces:R:3 energy=-25.57385836034967 pbc="F F F"
Br       0.00000000       0.00000000       0.00000000       0.00000000       0.00000000      -5.75983810
Br       0.00000000       0.00000000       2.06121212       0.00000000       0.00000000       5.75983810
2
Properties=species:S:1:pos:R:3:forces:R:3 energy=-25.85582248739778 pbc="F F F"
Br       0.00000000       0.00000000       0.00000000       0.00000000       0.00000000      -3.88406610
Br       0.00000000       0.00000000       2.12000000       0.00000000       0.00000000       3.88406610
2
Properties=species:S:1:pos:R:3:forces:R:3 energy=-26.035580574511492 pbc="F F F"
Br       0.00000000       0.00000000       0.00000000       0.00000000       0.00000000      -2.26899004
Br       0.00000000       0.00000000       2.17878788       0.00000000       0.00000000       2.26899004
2
Properties=species:S:1:pos:R:3:forces:R:3 energy=-26.126922662023116 pbc="F F F"
Br       0.00000000       0.00000000       0.00000000       0.00000000       0.00000000      -0.87696075
Br       0.00000000       0.00000000       2.23757576       0.00000000       0.00000000       0.87696075
2
Properties=species:S:1:pos:R:3:forces:R:3 energy=-26.143701695547918 pbc="F F F"
Br       0.00000000       0.00000000       0.00000000       0.00000000       0.00000000       0.25853056
Br       0.00000000       0.00000000       2.29636364       0.00000000       0.00000000      -0.25853056
2
Properties=species:S:1:pos:R:3:forces:R:3 energy=-26.102675544347175 pbc="F F F"
Br       0.00000000       0.00000000       0.00000000       0.00000000       0.00000000       1.08143198
Br       0.00000000       0.00000000       2.35515152       0.00000000       0.00000000      -1.08143198
2
Properties=species:S:1:pos:R:3:forces:R:3 energy=-26.023146437992732 pbc="F F F"
Br       0.00000000       0.00000000       0.00000000       0.00000000       0.00000000       1.57035506
Br       0.00000000       0.00000000       2.41393939       0.00000000       0.00000000      -1.57035506
2
Properties=species:S:1:pos:R:3:forces:R:3 energy=-25.92365937518596 pbc="F F F"
Br       0.00000000       0.00000000       0.00000000       0.00000000       0.00000000       1.77446151
Br       0.00000000       0.00000000       2.47272727       0.00000000       0.00000000      -1.77446151
2
Properties=species:S:1:pos:R:3:forces:R:3 energy=-25.818103498400554 pbc="F F F"
Br       0.00000000       0.00000000       0.00000000       0.00000000       0.00000000       1.79501867
Br       0.00000000       0.00000000       2.53151515       0.00000000       0.00000000      -1.79501867
2
Properties=species:S:1:pos:R:3:forces:R:3 energy=-25.714300629759737 pbc="F F F"
Br       0.00000000       0.00000000       0.00000000       0.00000000       0.00000000       1.72806644
Br       0.00000000       0.00000000       2.59030303       0.00000000       0.00000000      -1.72806644
2
Properties=species:S:1:pos:R:3:forces:R:3 energy=-25.615285096425158 pbc="F F F"
Br       0.00000000       0.00000000       0.00000000       0.00000000       0.00000000       1.64263129
Br       0.00000000       0.00000000       2.64909091       0.00000000       0.00000000      -1.64263129
2
Properties=species:S:1:pos:R:3:forces:R:3 energy=-25.520287832208513 pbc="F F F"
Br       0.00000000       0.00000000       0.00000000       0.00000000       0.00000000       1.60176182
Br       0.00000000       0.00000000       2.70787879       0.00000000       0.00000000      -1.60176182
2
Properties=species:S:1:pos:R:3:forces:R:3 energy=-25.425117842546374 pbc="F F F"
Br       0.00000000       0.00000000       0.00000000       0.00000000       0.00000000       1.65304601
Br       0.00000000       0.00000000       2.76666667       0.00000000       0.00000000      -1.65304601
2
Properties=species:S:1:pos:R:3:forces:R:3 energy=-25.324092243327705 pbc="F F F"
Br       0.00000000       0.00000000       0.00000000       0.00000000       0.00000000       1.79642475
Br       0.00000000       0.00000000       2.82545455       0.00000000       0.00000000      -1.79642475
2
Properties=species:S:1:pos:R:3:forces:R:3 energy=-25.212969694190985 pbc="F F F"
Br       0.00000000       0.00000000       0.00000000       0.00000000       0.00000000       1.98654735
Br       0.00000000       0.00000000       2.88424242       0.00000000       0.00000000      -1.98654735
2
Properties=species:S:1:pos:R:3:forces:R:3 energy=-25.090945869292597 pbc="F F F"
Br       0.00000000       0.00000000       0.00000000       0.00000000       0.00000000       2.15504909
Br       0.00000000       0.00000000       2.94303030       0.00000000       0.00000000      -2.15504909
2
Properties=species:S:1:pos:R:3:forces:R:3 energy=-24.96135645767013 pbc="F F F"
Br       0.00000000       0.00000000       0.00000000       0.00000000       0.00000000       2.23449492
Br       0.00000000       0.00000000       3.00181818       0.00000000       0.00000000      -2.23449492
2
Properties=species:S:1:pos:R:3:forces:R:3 energy=-24.830640823211546 pbc="F F F"
Br       0.00000000       0.00000000       0.00000000       0.00000000       0.00000000       2.19254398
Br       0.00000000       0.00000000       3.06060606       0.00000000       0.00000000      -2.19254398
2
Properties=species:S:1:pos:R:3:forces:R:3 energy=-24.70556947242052 pbc="F F F"
Br       0.00000000       0.00000000       0.00000000       0.00000000       0.00000000       2.04948163
Br       0.00000000       0.00000000       3.11939394       0.00000000       0.00000000      -2.04948163
2
Properties=species:S:1:pos:R:3:forces:R:3 energy=-24.590668395187336 pbc="F F F"
Br       0.00000000       0.00000000       0.00000000       0.00000000       0.00000000       1.85521913
Br       0.00000000       0.00000000       3.17818182       0.00000000       0.00000000      -1.85521913
2
Properties=species:S:1:pos:R:3:forces:R:3 energy=-24.48756799524634 pbc="F F F"
Br       0.00000000       0.00000000       0.00000000       0.00000000       0.00000000       1.65365016
Br       0.00000000       0.00000000       3.23696970       0.00000000       0.00000000      -1.65365016
2
Properties=species:S:1:pos:R:3:forces:R:3 energy=-24.3959351671963 pbc="F F F"
Br       0.00000000       0.00000000       0.00000000       0.00000000       0.00000000       1.46699262
Br       0.00000000       0.00000000       3.29575758       0.00000000       0.00000000      -1.46699262
2
Properties=species:S:1:pos:R:3:forces:R:3 energy=-24.314694860481058 pbc="F F F"
Br       0.00000000       0.00000000       0.00000000       0.00000000       0.00000000       1.30004275
Br       0.00000000       0.00000000       3.35454545       0.00000000       0.00000000      -1.30004275
2
Properties=species:S:1:pos:R:3:forces:R:3 energy=-24.242753286055322 pbc="F F F"
Br       0.00000000       0.00000000       0.00000000       0.00000000       0.00000000       1.14986944
Br       0.00000000       0.00000000       3.41333333       0.00000000       0.00000000      -1.14986944
2
Properties=species:S:1:pos:R:3:forces:R:3 energy=-24.179249603248863 pbc="F F F"
Br       0.00000000       0.00000000       0.00000000       0.00000000       0.00000000       1.01239324
Br       0.00000000       0.00000000       3.47212121       0.00000000       0.00000000      -1.01239324
2
Properties=species:S:1:pos:R:3:forces:R:3 energy=-24.123525343583687 pbc="F F F"
Br       0.00000000       0.00000000       0.00000000       0.00000000       0.00000000       0.88494003
Br       0.00000000       0.00000000       3.53090909       0.00000000       0.00000000      -0.88494003
2
Properties=species:S:1:pos:R:3:forces:R:3 energy=-24.07502512252307 pbc="F F F"
Br       0.00000000       0.00000000       0.00000000       0.00000000       0.00000000       0.76651984
Br       0.00000000       0.00000000       3.58969697       0.00000000       0.00000000      -0.76651984
2
Properties=species:S:1:pos:R:3:forces:R:3 energy=-24.033220324935417 pbc="F F F"
Br       0.00000000       0.00000000       0.00000000       0.00000000       0.00000000       0.65733993
Br       0.00000000       0.00000000       3.64848485       0.00000000       0.00000000      -0.65733993
2
Properties=species:S:1:pos:R:3:forces:R:3 energy=-23.997542355019718 pbc="F F F"
Br       0.00000000       0.00000000       0.00000000       0.00000000       0.00000000       0.55818504
Br       0.00000000       0.00000000       3.70727273       0.00000000       0.00000000      -0.55818504
2
Properties=species:S:1:pos:R:3:forces:R:3 energy=-23.967378759043772 pbc="F F F"
Br       0.00000000       0.00000000       0.00000000       0.00000000       0.00000000       0.46988648
Br       0.00000000       0.00000000       3.76606061       0.00000000       0.00000000      -0.46988648
2
Properties=species:S:1:pos:R:3:forces:R:3 energy=-23.942071375808332 pbc="F F F"
Br       0.00000000       0.00000000       0.00000000       0.00000000       0.00000000       0.39292750
Br       0.00000000       0.00000000       3.82484848       0.00000000       0.00000000      -0.39292750
2
Properties=species:S:1:pos:R:3:forces:R:3 energy=-23.920960143101155 pbc="F F F"
Br       0.00000000       0.00000000       0.00000000       0.00000000       0.00000000       0.32715875
Br       0.00000000       0.00000000       3.88363636       0.00000000       0.00000000      -0.32715875
2
Properties=species:S:1:pos:R:3:forces:R:3 energy=-23.90340412604931 pbc="F F F"
Br       0.00000000       0.00000000       0.00000000       0.00000000       0.00000000       0.27171600
Br       0.00000000       0.00000000       3.94242424       0.00000000       0.00000000      -0.27171600
2
Properties=species:S:1:pos:R:3:forces:R:3 energy=-23.88884064334287 pbc="F F F"
Br       0.00000000       0.00000000       0.00000000       0.00000000       0.00000000       0.22506925
Br       0.00000000       0.00000000       4.00121212       0.00000000       0.00000000      -0.22506925
2
Properties=species:S:1:pos:R:3:forces:R:3 energy=-23.87680621718362 pbc="F F F"
Br       0.00000000       0.00000000       0.00000000       0.00000000       0.00000000       0.18525565
Br       0.00000000       0.00000000       4.06000000       0.00000000       0.00000000      -0.18525565
2
Properties=species:S:1:pos:R:3:forces:R:3 energy=-23.86696522944796 pbc="F F F"
Br       0.00000000       0.00000000       0.00000000       0.00000000       0.00000000       0.15017456
Br       0.00000000       0.00000000       4.11878788       0.00000000       0.00000000      -0.15017456
2
Properties=species:S:1:pos:R:3:forces:R:3 energy=-23.85909461617247 pbc="F F F"
Br       0.00000000       0.00000000       0.00000000       0.00000000       0.00000000       0.11795332
Br       0.00000000       0.00000000       4.17757576       0.00000000       0.00000000      -0.11795332
2
Properties=species:S:1:pos:R:3:forces:R:3 energy=-23.853066764772656 pbc="F F F"
Br       0.00000000       0.00000000       0.00000000       0.00000000       0.00000000       0.08725952
Br       0.00000000       0.00000000       4.23636364       0.00000000       0.00000000      -0.08725952
2
Properties=species:S:1:pos:R:3:forces:R:3 energy=-23.848817031303447 pbc="F F F"
Br       0.00000000       0.00000000       0.00000000       0.00000000       0.00000000       0.05749479
Br       0.00000000       0.00000000       4.29515152       0.00000000       0.00000000      -0.05749479
2
Properties=species:S:1:pos:R:3:forces:R:3 energy=-23.846286559597974 pbc="F F F"
Br       0.00000000       0.00000000       0.00000000       0.00000000       0.00000000       0.02880988
Br       0.00000000       0.00000000       4.35393939       0.00000000       0.00000000      -0.02880988
2
Properties=species:S:1:pos:R:3:forces:R:3 energy=-23.845393648467347 pbc="F F F"
Br       0.00000000       0.00000000       0.00000000       0.00000000       0.00000000       0.00194008
Br       0.00000000       0.00000000       4.41272727       0.00000000       0.00000000      -0.00194008
2
Properties=species:S:1:pos:R:3:forces:R:3 energy=-23.84600133310956 pbc="F F F"
Br       0.00000000       0.00000000       0.00000000       0.00000000       0.00000000      -0.02205450
Br       0.00000000       0.00000000       4.47151515       0.00000000       0.00000000       0.02205450
2
Properties=species:S:1:pos:R:3:forces:R:3 energy=-23.847909762446548 pbc="F F F"
Br       0.00000000       0.00000000       0.00000000       0.00000000       0.00000000      -0.04207813
Br       0.00000000       0.00000000       4.53030303       0.00000000       0.00000000       0.04207813
2
Properties=species:S:1:pos:R:3:forces:R:3 energy=-23.850854264057144 pbc="F F F"
Br       0.00000000       0.00000000       0.00000000       0.00000000       0.00000000      -0.05722722
Br       0.00000000       0.00000000       4.58909091       0.00000000       0.00000000       0.05722722
2
Properties=species:S:1:pos:R:3:forces:R:3 energy=-23.85453015356851 pbc="F F F"
Br       0.00000000       0.00000000       0.00000000       0.00000000       0.00000000      -0.06694198
Br       0.00000000       0.00000000       4.64787879       0.00000000       0.00000000       0.06694198
2
Properties=species:S:1:pos:R:3:forces:R:3 energy=-23.858615607792576 pbc="F F F"
Br       0.00000000       0.00000000       0.00000000       0.00000000       0.00000000      -0.07111071
Br       0.00000000       0.00000000       4.70666667       0.00000000       0.00000000       0.07111071
2
Properties=species:S:1:pos:R:3:forces:R:3 energy=-23.862790740984213 pbc="F F F"
Br       0.00000000       0.00000000       0.00000000       0.00000000       0.00000000      -0.07012440
Br       0.00000000       0.00000000       4.76545455       0.00000000       0.00000000       0.07012440
2
Properties=species:S:1:pos:R:3:forces:R:3 energy=-23.866777631048112 pbc="F F F"
Br       0.00000000       0.00000000       0.00000000       0.00000000       0.00000000      -0.06488864
Br       0.00000000       0.00000000       4.82424242       0.00000000       0.00000000       0.06488864
2
Properties=species:S:1:pos:R:3:forces:R:3 energy=-23.870363228709184 pbc="F F F"
Br       0.00000000       0.00000000       0.00000000       0.00000000       0.00000000      -0.05673895
Br       0.00000000       0.00000000       4.88303030       0.00000000       0.00000000       0.05673895
2
Properties=species:S:1:pos:R:3:forces:R:3 energy=-23.87342220847425 pbc="F F F"
Br       0.00000000       0.00000000       0.00000000       0.00000000       0.00000000      -0.04724628
Br       0.00000000       0.00000000       4.94181818       0.00000000       0.00000000       0.04724628
2
Properties=species:S:1:pos:R:3:forces:R:3 energy=-23.87592079996037 pbc="F F F"
Br       0.00000000       0.00000000       0.00000000       0.00000000       0.00000000      -0.03793059
Br       0.00000000       0.00000000       5.00060606       0.00000000       0.00000000       0.03793059
2
Properties=species:S:1:pos:R:3:forces:R:3 energy=-23.877907229372905 pbc="F F F"
Br       0.00000000       0.00000000       0.00000000       0.00000000       0.00000000      -0.02994319
Br       0.00000000       0.00000000       5.05939394       0.00000000       0.00000000       0.02994319
2
Properties=species:S:1:pos:R:3:forces:R:3 energy=-23.879477381290467 pbc="F F F"
Br       0.00000000       0.00000000       0.00000000       0.00000000       0.00000000      -0.02375021
Br       0.00000000       0.00000000       5.11818182       0.00000000       0.00000000       0.02375021
2
Properties=species:S:1:pos:R:3:forces:R:3 energy=-23.88072710861344 pbc="F F F"
Br       0.00000000       0.00000000       0.00000000       0.00000000       0.00000000      -0.01884949
Br       0.00000000       0.00000000       5.17696970       0.00000000       0.00000000       0.01884949
2
Properties=species:S:1:pos:R:3:forces:R:3 energy=-23.881687385086337 pbc="F F F"
Br       0.00000000       0.00000000       0.00000000       0.00000000       0.00000000      -0.01356334
Br       0.00000000       0.00000000       5.23575758       0.00000000       0.00000000       0.01356334
2
Properties=species:S:1:pos:R:3:forces:R:3 energy=-23.88226326182602 pbc="F F F"
Br       0.00000000       0.00000000       0.00000000       0.00000000       0.00000000      -0.00532447
Br       0.00000000       0.00000000       5.29454545       0.00000000       0.00000000       0.00532447
2
Properties=species:S:1:pos:R:3:forces:R:3 energy=-23.88222623040358 pbc="F F F"
Br       0.00000000       0.00000000       0.00000000       0.00000000       0.00000000       0.00708095
Br       0.00000000       0.00000000       5.35333333       0.00000000       0.00000000      -0.00708095
2
Properties=species:S:1:pos:R:3:forces:R:3 energy=-23.88145645770464 pbc="F F F"
Br       0.00000000       0.00000000       0.00000000       0.00000000       0.00000000       0.01780200
Br       0.00000000       0.00000000       5.41212121       0.00000000       0.00000000      -0.01780200
2
Properties=species:S:1:pos:R:3:forces:R:3 energy=-23.88043869696984 pbc="F F F"
Br       0.00000000       0.00000000       0.00000000       0.00000000       0.00000000       0.01353406
Br       0.00000000       0.00000000       5.47090909       0.00000000       0.00000000      -0.01353406
2
Properties=species:S:1:pos:R:3:forces:R:3 energy=-23.880119237835306 pbc="F F F"
Br       0.00000000       0.00000000       0.00000000       0.00000000       0.00000000      -0.00262881
Br       0.00000000       0.00000000       5.52969697       0.00000000       0.00000000       0.00262881
2
Properties=species:S:1:pos:R:3:forces:R:3 energy=-23.880496366585543 pbc="F F F"
Br       0.00000000       0.00000000       0.00000000       0.00000000       0.00000000      -0.00729254
Br       0.00000000       0.00000000       5.58848485       0.00000000       0.00000000       0.00729254
2
Properties=species:S:1:pos:R:3:forces:R:3 energy=-23.880792045349352 pbc="F F F"
Br       0.00000000       0.00000000       0.00000000       0.00000000       0.00000000      -0.00320676
Br       0.00000000       0.00000000       5.64727273       0.00000000       0.00000000       0.00320676
2
Properties=species:S:1:pos:R:3:forces:R:3 energy=-23.8811456252125 pbc="F F F"
Br       0.00000000       0.00000000       0.00000000       0.00000000       0.00000000      -0.01227143
Br       0.00000000       0.00000000       5.70606061       0.00000000       0.00000000       0.01227143
2
Properties=species:S:1:pos:R:3:forces:R:3 energy=-23.88256426267682 pbc="F F F"
Br       0.00000000       0.00000000       0.00000000       0.00000000       0.00000000      -0.03648578
Br       0.00000000       0.00000000       5.76484848       0.00000000       0.00000000       0.03648578
2
Properties=species:S:1:pos:R:3:forces:R:3 energy=-23.885131930183395 pbc="F F F"
Br       0.00000000       0.00000000       0.00000000       0.00000000       0.00000000      -0.04619092
Br       0.00000000       0.00000000       5.82363636       0.00000000       0.00000000       0.04619092
2
Properties=species:S:1:pos:R:3:forces:R:3 energy=-23.88744101513261 pbc="F F F"
Br       0.00000000       0.00000000       0.00000000       0.00000000       0.00000000      -0.02950407
Br       0.00000000       0.00000000       5.88242424       0.00000000       0.00000000       0.02950407
2
Properties=species:S:1:pos:R:3:forces:R:3 energy=-23.888499681188247 pbc="F F F"
Br       0.00000000       0.00000000       0.00000000       0.00000000       0.00000000      -0.00731976
Br       0.00000000       0.00000000       5.94121212       0.00000000       0.00000000       0.00731976
2
Properties=species:S:1:pos:R:3:forces:R:3 energy=-23.88857301080646 pbc="F F F"
Br       0.00000000       0.00000000       0.00000000       0.00000000       0.00000000       0.00179626
Br       0.00000000       0.00000000       6.00000000       0.00000000       0.00000000      -0.00179626
