2
Properties=species:S:1:pos:R:3:forces:R:3 energy=-1460.623340718289 pbc="F F F"
C        0.00000000       0.00000000       0.00000000       0.00000000       0.00000000   -3392.35986328
C        0.00000000       0.00000000       0.18000000       0.00000000       0.00000000    3392.35986328
2
Properties=species:S:1:pos:R:3:forces:R:3 energy=-1502.1139413042265 pbc="F F F"
C        0.00000000       0.00000000       0.00000000       0.00000000       0.00000000    1741.45104980
C        0.00000000       0.00000000       0.23878788       0.00000000       0.00000000   -1741.45104980
2
Properties=species:S:1:pos:R:3:forces:R:3 energy=-1269.3844491163304 pbc="F F F"
C        0.00000000       0.00000000       0.00000000       0.00000000       0.00000000    5539.80371094
C        0.00000000       0.00000000       0.29757576       0.00000000       0.00000000   -5539.80371094
2
Properties=species:S:1:pos:R:3:forces:R:3 energy=-859.6450081979658 pbc="F F F"
C        0.00000000       0.00000000       0.00000000       0.00000000       0.00000000    7955.68603516
C        0.00000000       0.00000000       0.35636364       0.00000000       0.00000000   -7955.68603516
2
Properties=species:S:1:pos:R:3:forces:R:3 energy=-330.98622523779346 pbc="F F F"
C        0.00000000       0.00000000       0.00000000       0.00000000       0.00000000    6617.29785156
C        0.00000000       0.00000000       0.41515152       0.00000000       0.00000000   -6617.29785156
2
Properties=species:S:1:pos:R:3:forces:R:3 energy=78.61568821752282 pbc="F F F"
C        0.00000000       0.00000000       0.00000000       0.00000000       0.00000000    6529.43798828
C        0.00000000       0.00000000       0.47393939       0.00000000       0.00000000   -6529.43798828
2
Properties=species:S:1:pos:R:3:forces:R:3 energy=196.26610936485267 pbc="F F F"
C        0.00000000       0.00000000       0.00000000       0.00000000       0.00000000   -1300.36645508
C        0.00000000       0.00000000       0.53272727       0.00000000       0.00000000    1300.36645508
2
Properties=species:S:1:pos:R:3:forces:R:3 energy=80.89502325295871 pbc="F F F"
C        0.00000000       0.00000000       0.00000000       0.00000000       0.00000000   -1796.35888672
C        0.00000000       0.00000000       0.59151515       0.00000000       0.00000000    1796.35888672
2
Properties=species:S:1:pos:R:3:forces:R:3 energy=32.376605909211456 pbc="F F F"
C        0.00000000       0.00000000       0.00000000       0.00000000       0.00000000      96.38684845
C        0.00000000       0.00000000       0.65030303       0.00000000       0.00000000     -96.38684845
2
Properties=species:S:1:pos:R:3:forces:R:3 energy=28.401233617329062 pbc="F F F"
C        0.00000000       0.00000000       0.00000000       0.00000000       0.00000000    -193.90820312
C        0.00000000       0.00000000       0.70909091       0.00000000       0.00000000     193.90820312
2
Properties=species:S:1:pos:R:3:forces:R:3 energy=16.39957616621319 pbc="F F F"
C        0.00000000       0.00000000       0.00000000       0.00000000       0.00000000    -188.15750122
C        0.00000000       0.00000000       0.76787879       0.00000000       0.00000000     188.15750122
2
Properties=species:S:1:pos:R:3:forces:R:3 energy=7.4265837963058345 pbc="F F F"
C        0.00000000       0.00000000       0.00000000       0.00000000       0.00000000    -112.89398193
C        0.00000000       0.00000000       0.82666667       0.00000000       0.00000000     112.89398193
2
Properties=species:S:1:pos:R:3:forces:R:3 energy=1.2306572025100004 pbc="F F F"
C        0.00000000       0.00000000       0.00000000       0.00000000       0.00000000    -104.50743866
C        0.00000000       0.00000000       0.88545455       0.00000000       0.00000000     104.50743866
2
Properties=species:S:1:pos:R:3:forces:R:3 energy=-4.389578616072083 pbc="F F F"
C        0.00000000       0.00000000       0.00000000       0.00000000       0.00000000     -80.36836243
C        0.00000000       0.00000000       0.94424242       0.00000000       0.00000000      80.36836243
2
Properties=species:S:1:pos:R:3:forces:R:3 energy=-7.9140378399058715 pbc="F F F"
C        0.00000000       0.00000000       0.00000000       0.00000000       0.00000000     -41.31344223
C        0.00000000       0.00000000       1.00303030       0.00000000       0.00000000      41.31344223
2
Properties=species:S:1:pos:R:3:forces:R:3 energy=-9.66200394371256 pbc="F F F"
C        0.00000000       0.00000000       0.00000000       0.00000000       0.00000000     -20.82572174
C        0.00000000       0.00000000       1.06181818       0.00000000       0.00000000      20.82572174
2
Properties=species:S:1:pos:R:3:forces:R:3 energy=-10.580458823691623 pbc="F F F"
C        0.00000000       0.00000000       0.00000000       0.00000000       0.00000000     -12.24787331
C        0.00000000       0.00000000       1.12060606       0.00000000       0.00000000      12.24787331
2
Properties=species:S:1:pos:R:3:forces:R:3 energy=-11.20038972791771 pbc="F F F"
C        0.00000000       0.00000000       0.00000000       0.00000000       0.00000000      -8.63457012
C        0.00000000       0.00000000       1.17939394       0.00000000       0.00000000       8.63457012
2
Properties=species:S:1:pos:R:3:forces:R:3 energy=-11.563994826851763 pbc="F F F"
C        0.00000000       0.00000000       0.00000000       0.00000000       0.00000000      -3.66594887
C        0.00000000       0.00000000       1.23818182       0.00000000       0.00000000       3.66594887
2
Properties=species:S:1:pos:R:3:forces:R:3 energy=-11.636894159011474 pbc="F F F"
C        0.00000000       0.00000000       0.00000000       0.00000000       0.00000000       1.06998932
C        0.00000000       0.00000000       1.29696970       0.00000000       0.00000000      -1.06998932
2
Properties=species:S:1:pos:R:3:forces:R:3 energy=-11.455125186096266 pbc="F F F"
C        0.00000000       0.00000000       0.00000000       0.00000000       0.00000000       4.98057413
C        0.00000000       0.00000000       1.35575758       0.00000000       0.00000000      -4.98057413
2
Properties=species:S:1:pos:R:3:forces:R:3 energy=-11.075320011017869 pbc="F F F"
C        0.00000000       0.00000000       0.00000000       0.00000000       0.00000000       7.55402136
C        0.00000000       0.00000000       1.41454545       0.00000000       0.00000000      -7.55402136
2
Properties=species:S:1:pos:R:3:forces:R:3 energy=-10.621710131064345 pbc="F F F"
C        0.00000000       0.00000000       0.00000000       0.00000000       0.00000000       7.57432365
C        0.00000000       0.00000000       1.47333333       0.00000000       0.00000000      -7.57432365
2
Properties=species:S:1:pos:R:3:forces:R:3 energy=-10.185483334586035 pbc="F F F"
C        0.00000000       0.00000000       0.00000000       0.00000000       0.00000000       7.38219213
C        0.00000000       0.00000000       1.53212121       0.00000000       0.00000000      -7.38219213
2
Properties=species:S:1:pos:R:3:forces:R:3 energy=-9.763015247995822 pbc="F F F"
C        0.00000000       0.00000000       0.00000000       0.00000000       0.00000000       6.66226530
C        0.00000000       0.00000000       1.59090909       0.00000000       0.00000000      -6.66226530
2
Properties=species:S:1:pos:R:3:forces:R:3 energy=-9.448702323728162 pbc="F F F"
C        0.00000000       0.00000000       0.00000000       0.00000000       0.00000000       3.74264312
C        0.00000000       0.00000000       1.64969697       0.00000000       0.00000000      -3.74264312
2
Properties=species:S:1:pos:R:3:forces:R:3 energy=-9.325705074075538 pbc="F F F"
C        0.00000000       0.00000000       0.00000000       0.00000000       0.00000000       0.74151069
C        0.00000000       0.00000000       1.70848485       0.00000000       0.00000000      -0.74151069
2
Properties=species:S:1:pos:R:3:forces:R:3 energy=-9.2891266575127 pbc="F F F"
C        0.00000000       0.00000000       0.00000000       0.00000000       0.00000000       1.26988351
C        0.00000000       0.00000000       1.76727273       0.00000000       0.00000000      -1.26988351
2
Properties=species:S:1:pos:R:3:forces:R:3 energy=-9.118363400190015 pbc="F F F"
C        0.00000000       0.00000000       0.00000000       0.00000000       0.00000000       4.55922985
C        0.00000000       0.00000000       1.82606061       0.00000000       0.00000000      -4.55922985
2
Properties=species:S:1:pos:R:3:forces:R:3 energy=-8.795770713782531 pbc="F F F"
C        0.00000000       0.00000000       0.00000000       0.00000000       0.00000000       5.88366318
C        0.00000000       0.00000000       1.88484848       0.00000000       0.00000000      -5.88366318
2
Properties=species:S:1:pos:R:3:forces:R:3 energy=-8.48357862533376 pbc="F F F"
C        0.00000000       0.00000000       0.00000000       0.00000000       0.00000000       4.37435007
C        0.00000000       0.00000000       1.94363636       0.00000000       0.00000000      -4.37435007
2
Properties=species:S:1:pos:R:3:forces:R:3 energy=-8.299757608501501 pbc="F F F"
C        0.00000000       0.00000000       0.00000000       0.00000000       0.00000000       1.94898653
C        0.00000000       0.00000000       2.00242424       0.00000000       0.00000000      -1.94898653
2
Properties=species:S:1:pos:R:3:forces:R:3 energy=-8.22609840324173 pbc="F F F"
C        0.00000000       0.00000000       0.00000000       0.00000000       0.00000000       0.89870781
C        0.00000000       0.00000000       2.06121212       0.00000000       0.00000000      -0.89870781
2
Properties=species:S:1:pos:R:3:forces:R:3 energy=-8.154729522477577 pbc="F F F"
C        0.00000000       0.00000000       0.00000000       0.00000000       0.00000000       1.80403459
C        0.00000000       0.00000000       2.12000000       0.00000000       0.00000000      -1.80403459
2
Properties=species:S:1:pos:R:3:forces:R:3 energy=-7.993243230328265 pbc="F F F"
C        0.00000000       0.00000000       0.00000000       0.00000000       0.00000000       3.75928473
C        0.00000000       0.00000000       2.17878788       0.00000000       0.00000000      -3.75928473
2
Properties=species:S:1:pos:R:3:forces:R:3 energy=-7.717660193796952 pbc="F F F"
C        0.00000000       0.00000000       0.00000000       0.00000000       0.00000000       5.47399950
C        0.00000000       0.00000000       2.23757576       0.00000000       0.00000000      -5.47399950
2
Properties=species:S:1:pos:R:3:forces:R:3 energy=-7.3724714886594915 pbc="F F F"
C        0.00000000       0.00000000       0.00000000       0.00000000       0.00000000       6.06237316
C        0.00000000       0.00000000       2.29636364       0.00000000       0.00000000      -6.06237316
2
Properties=species:S:1:pos:R:3:forces:R:3 energy=-7.026052896797052 pbc="F F F"
C        0.00000000       0.00000000       0.00000000       0.00000000       0.00000000       5.58095169
C        0.00000000       0.00000000       2.35515152       0.00000000       0.00000000      -5.58095169
2
Properties=species:S:1:pos:R:3:forces:R:3 energy=-6.728173133446882 pbc="F F F"
C        0.00000000       0.00000000       0.00000000       0.00000000       0.00000000       4.49171829
C        0.00000000       0.00000000       2.41393939       0.00000000       0.00000000      -4.49171829
2
Properties=species:S:1:pos:R:3:forces:R:3 energy=-6.500873986187627 pbc="F F F"
C        0.00000000       0.00000000       0.00000000       0.00000000       0.00000000       3.24851394
C        0.00000000       0.00000000       2.47272727       0.00000000       0.00000000      -3.24851394
2
Properties=species:S:1:pos:R:3:forces:R:3 energy=-6.342555105093167 pbc="F F F"
C        0.00000000       0.00000000       0.00000000       0.00000000       0.00000000       2.18602610
C        0.00000000       0.00000000       2.53151515       0.00000000       0.00000000      -2.18602610
2
Properties=species:S:1:pos:R:3:forces:R:3 energy=-6.237315522618101 pbc="F F F"
C        0.00000000       0.00000000       0.00000000       0.00000000       0.00000000       1.45141733
C        0.00000000       0.00000000       2.59030303       0.00000000       0.00000000      -1.45141733
2
Properties=species:S:1:pos:R:3:forces:R:3 energy=-6.1657045576110985 pbc="F F F"
C        0.00000000       0.00000000       0.00000000       0.00000000       0.00000000       1.03086352
C        0.00000000       0.00000000       2.64909091       0.00000000       0.00000000      -1.03086352
2
Properties=species:S:1:pos:R:3:forces:R:3 energy=-6.111654142820989 pbc="F F F"
C        0.00000000       0.00000000       0.00000000       0.00000000       0.00000000       0.83782881
C        0.00000000       0.00000000       2.70787879       0.00000000       0.00000000      -0.83782881
2
Properties=species:S:1:pos:R:3:forces:R:3 energy=-6.0645225731114705 pbc="F F F"
C        0.00000000       0.00000000       0.00000000       0.00000000       0.00000000       0.78204209
C        0.00000000       0.00000000       2.76666667       0.00000000       0.00000000      -0.78204209
2
Properties=species:S:1:pos:R:3:forces:R:3 energy=-6.018347800250131 pbc="F F F"
C        0.00000000       0.00000000       0.00000000       0.00000000       0.00000000       0.79633671
C        0.00000000       0.00000000       2.82545455       0.00000000       0.00000000      -0.79633671
2
Properties=species:S:1:pos:R:3:forces:R:3 energy=-5.9703644784539325 pbc="F F F"
C        0.00000000       0.00000000       0.00000000       0.00000000       0.00000000       0.83820540
C        0.00000000       0.00000000       2.88424242       0.00000000       0.00000000      -0.83820540
2
Properties=species:S:1:pos:R:3:forces:R:3 energy=-5.919736540330194 pbc="F F F"
C        0.00000000       0.00000000       0.00000000       0.00000000       0.00000000       0.88344759
C        0.00000000       0.00000000       2.94303030       0.00000000       0.00000000      -0.88344759
2
Properties=species:S:1:pos:R:3:forces:R:3 energy=-5.866670285701999 pbc="F F F"
C        0.00000000       0.00000000       0.00000000       0.00000000       0.00000000       0.91983819
C        0.00000000       0.00000000       3.00181818       0.00000000       0.00000000      -0.91983819
2
Properties=species:S:1:pos:R:3:forces:R:3 energy=-5.811856489656676 pbc="F F F"
C        0.00000000       0.00000000       0.00000000       0.00000000       0.00000000       0.94256002
C        0.00000000       0.00000000       3.06060606       0.00000000       0.00000000      -0.94256002
2
Properties=species:S:1:pos:R:3:forces:R:3 energy=-5.756127079395916 pbc="F F F"
C        0.00000000       0.00000000       0.00000000       0.00000000       0.00000000       0.95116460
C        0.00000000       0.00000000       3.11939394       0.00000000       0.00000000      -0.95116460
2
Properties=species:S:1:pos:R:3:forces:R:3 energy=-5.700262499547433 pbc="F F F"
C        0.00000000       0.00000000       0.00000000       0.00000000       0.00000000       0.94757158
C        0.00000000       0.00000000       3.17818182       0.00000000       0.00000000      -0.94757158
2
Properties=species:S:1:pos:R:3:forces:R:3 energy=-5.644897304743289 pbc="F F F"
C        0.00000000       0.00000000       0.00000000       0.00000000       0.00000000       0.93471605
C        0.00000000       0.00000000       3.23696970       0.00000000       0.00000000      -0.93471605
2
Properties=species:S:1:pos:R:3:forces:R:3 energy=-5.590483441178816 pbc="F F F"
C        0.00000000       0.00000000       0.00000000       0.00000000       0.00000000       0.91567218
C        0.00000000       0.00000000       3.29575758       0.00000000       0.00000000      -0.91567218
2
Properties=species:S:1:pos:R:3:forces:R:3 energy=-5.537304566774525 pbc="F F F"
C        0.00000000       0.00000000       0.00000000       0.00000000       0.00000000       0.89310956
C        0.00000000       0.00000000       3.35454545       0.00000000       0.00000000      -0.89310956
2
Properties=species:S:1:pos:R:3:forces:R:3 energy=-5.485505130323197 pbc="F F F"
C        0.00000000       0.00000000       0.00000000       0.00000000       0.00000000       0.86900872
C        0.00000000       0.00000000       3.41333333       0.00000000       0.00000000      -0.86900872
2
Properties=species:S:1:pos:R:3:forces:R:3 energy=-5.435135683691201 pbc="F F F"
C        0.00000000       0.00000000       0.00000000       0.00000000       0.00000000       0.84458590
C        0.00000000       0.00000000       3.47212121       0.00000000       0.00000000      -0.84458590
2
Properties=species:S:1:pos:R:3:forces:R:3 energy=-5.386198656205795 pbc="F F F"
C        0.00000000       0.00000000       0.00000000       0.00000000       0.00000000       0.82036072
C        0.00000000       0.00000000       3.53090909       0.00000000       0.00000000      -0.82036072
2
Properties=species:S:1:pos:R:3:forces:R:3 energy=-5.338677451621216 pbc="F F F"
C        0.00000000       0.00000000       0.00000000       0.00000000       0.00000000       0.79631138
C        0.00000000       0.00000000       3.58969697       0.00000000       0.00000000      -0.79631138
2
Properties=species:S:1:pos:R:3:forces:R:3 energy=-5.292574109542671 pbc="F F F"
C        0.00000000       0.00000000       0.00000000       0.00000000       0.00000000       0.77210319
C        0.00000000       0.00000000       3.64848485       0.00000000       0.00000000      -0.77210319
2
Properties=species:S:1:pos:R:3:forces:R:3 energy=-5.247908841260467 pbc="F F F"
C        0.00000000       0.00000000       0.00000000       0.00000000       0.00000000       0.74729866
C        0.00000000       0.00000000       3.70727273       0.00000000       0.00000000      -0.74729866
2
Properties=species:S:1:pos:R:3:forces:R:3 energy=-5.2047271743878305 pbc="F F F"
C        0.00000000       0.00000000       0.00000000       0.00000000       0.00000000       0.72157532
C        0.00000000       0.00000000       3.76606061       0.00000000       0.00000000      -0.72157532
2
Properties=species:S:1:pos:R:3:forces:R:3 energy=-5.163088510353014 pbc="F F F"
C        0.00000000       0.00000000       0.00000000       0.00000000       0.00000000       0.69486237
C        0.00000000       0.00000000       3.82484848       0.00000000       0.00000000      -0.69486237
2
Properties=species:S:1:pos:R:3:forces:R:3 energy=-5.123043236215711 pbc="F F F"
C        0.00000000       0.00000000       0.00000000       0.00000000       0.00000000       0.66739661
C        0.00000000       0.00000000       3.88363636       0.00000000       0.00000000      -0.66739661
2
Properties=species:S:1:pos:R:3:forces:R:3 energy=-5.08462461011983 pbc="F F F"
C        0.00000000       0.00000000       0.00000000       0.00000000       0.00000000       0.63965106
C        0.00000000       0.00000000       3.94242424       0.00000000       0.00000000      -0.63965106
2
Properties=species:S:1:pos:R:3:forces:R:3 energy=-5.047832072388933 pbc="F F F"
C        0.00000000       0.00000000       0.00000000       0.00000000       0.00000000       0.61217368
C        0.00000000       0.00000000       4.00121212       0.00000000       0.00000000      -0.61217368
2
Properties=species:S:1:pos:R:3:forces:R:3 energy=-5.012636005384299 pbc="F F F"
C        0.00000000       0.00000000       0.00000000       0.00000000       0.00000000       0.58531082
C        0.00000000       0.00000000       4.06000000       0.00000000       0.00000000      -0.58531082
2
Properties=species:S:1:pos:R:3:forces:R:3 energy=-4.979002518543739 pbc="F F F"
C        0.00000000       0.00000000       0.00000000       0.00000000       0.00000000       0.55897951
C        0.00000000       0.00000000       4.11878788       0.00000000       0.00000000      -0.55897951
2
Properties=species:S:1:pos:R:3:forces:R:3 energy=-4.946915383286849 pbc="F F F"
C        0.00000000       0.00000000       0.00000000       0.00000000       0.00000000       0.53251082
C        0.00000000       0.00000000       4.17757576       0.00000000       0.00000000      -0.53251082
2
Properties=species:S:1:pos:R:3:forces:R:3 energy=-4.916417025567484 pbc="F F F"
C        0.00000000       0.00000000       0.00000000       0.00000000       0.00000000       0.50471479
C        0.00000000       0.00000000       4.23636364       0.00000000       0.00000000      -0.50471479
2
Properties=species:S:1:pos:R:3:forces:R:3 energy=-4.887626641528004 pbc="F F F"
C        0.00000000       0.00000000       0.00000000       0.00000000       0.00000000       0.47416776
C        0.00000000       0.00000000       4.29515152       0.00000000       0.00000000      -0.47416776
2
Properties=species:S:1:pos:R:3:forces:R:3 energy=-4.860745912417571 pbc="F F F"
C        0.00000000       0.00000000       0.00000000       0.00000000       0.00000000       0.43964148
C        0.00000000       0.00000000       4.35393939       0.00000000       0.00000000      -0.43964148
2
Properties=species:S:1:pos:R:3:forces:R:3 energy=-4.836027043039307 pbc="F F F"
C        0.00000000       0.00000000       0.00000000       0.00000000       0.00000000       0.40052360
C        0.00000000       0.00000000       4.41272727       0.00000000       0.00000000      -0.40052360
2
Properties=species:S:1:pos:R:3:forces:R:3 energy=-4.8137384308608215 pbc="F F F"
C        0.00000000       0.00000000       0.00000000       0.00000000       0.00000000       0.35707331
C        0.00000000       0.00000000       4.47151515       0.00000000       0.00000000      -0.35707331
2
Properties=species:S:1:pos:R:3:forces:R:3 energy=-4.79410600257046 pbc="F F F"
C        0.00000000       0.00000000       0.00000000       0.00000000       0.00000000       0.31043053
C        0.00000000       0.00000000       4.53030303       0.00000000       0.00000000      -0.31043053
2
Properties=species:S:1:pos:R:3:forces:R:3 energy=-4.7772674361261975 pbc="F F F"
C        0.00000000       0.00000000       0.00000000       0.00000000       0.00000000       0.26238996
C        0.00000000       0.00000000       4.58909091       0.00000000       0.00000000      -0.26238996
2
Properties=species:S:1:pos:R:3:forces:R:3 energy=-4.7632425950699355 pbc="F F F"
C        0.00000000       0.00000000       0.00000000       0.00000000       0.00000000       0.21502267
C        0.00000000       0.00000000       4.64787879       0.00000000       0.00000000      -0.21502267
2
Properties=species:S:1:pos:R:3:forces:R:3 energy=-4.75193399982097 pbc="F F F"
C        0.00000000       0.00000000       0.00000000       0.00000000       0.00000000       0.17027424
C        0.00000000       0.00000000       4.70666667       0.00000000       0.00000000      -0.17027424
2
Properties=species:S:1:pos:R:3:forces:R:3 energy=-4.74314113199878 pbc="F F F"
C        0.00000000       0.00000000       0.00000000       0.00000000       0.00000000       0.12965782
C        0.00000000       0.00000000       4.76545455       0.00000000       0.00000000      -0.12965782
2
Properties=species:S:1:pos:R:3:forces:R:3 energy=-4.73658904881029 pbc="F F F"
C        0.00000000       0.00000000       0.00000000       0.00000000       0.00000000       0.09411427
C        0.00000000       0.00000000       4.82424242       0.00000000       0.00000000      -0.09411427
2
Properties=species:S:1:pos:R:3:forces:R:3 energy=-4.731967959940031 pbc="F F F"
C        0.00000000       0.00000000       0.00000000       0.00000000       0.00000000       0.06409415
C        0.00000000       0.00000000       4.88303030       0.00000000       0.00000000      -0.06409415
2
Properties=species:S:1:pos:R:3:forces:R:3 energy=-4.728942283298379 pbc="F F F"
C        0.00000000       0.00000000       0.00000000       0.00000000       0.00000000       0.03976672
C        0.00000000       0.00000000       4.94181818       0.00000000       0.00000000      -0.03976672
2
Properties=species:S:1:pos:R:3:forces:R:3 energy=-4.7271778352329905 pbc="F F F"
C        0.00000000       0.00000000       0.00000000       0.00000000       0.00000000       0.02124468
C        0.00000000       0.00000000       5.00060606       0.00000000       0.00000000      -0.02124468
2
Properties=species:S:1:pos:R:3:forces:R:3 energy=-4.726330864165102 pbc="F F F"
C        0.00000000       0.00000000       0.00000000       0.00000000       0.00000000       0.00850794
C        0.00000000       0.00000000       5.05939394       0.00000000       0.00000000      -0.00850794
2
Properties=species:S:1:pos:R:3:forces:R:3 energy=-4.72607284523082 pbc="F F F"
C        0.00000000       0.00000000       0.00000000       0.00000000       0.00000000       0.00104486
C        0.00000000       0.00000000       5.11818182       0.00000000       0.00000000      -0.00104486
2
Properties=species:S:1:pos:R:3:forces:R:3 energy=-4.726135787037731 pbc="F F F"
C        0.00000000       0.00000000       0.00000000       0.00000000       0.00000000      -0.00279442
C        0.00000000       0.00000000       5.17696970       0.00000000       0.00000000       0.00279442
2
Properties=species:S:1:pos:R:3:forces:R:3 energy=-4.726392343772299 pbc="F F F"
C        0.00000000       0.00000000       0.00000000       0.00000000       0.00000000      -0.00618753
C        0.00000000       0.00000000       5.23575758       0.00000000       0.00000000       0.00618753
2
Properties=species:S:1:pos:R:3:forces:R:3 energy=-4.726936400580595 pbc="F F F"
C        0.00000000       0.00000000       0.00000000       0.00000000       0.00000000      -0.01324929
C        0.00000000       0.00000000       5.29454545       0.00000000       0.00000000       0.01324929
2
Properties=species:S:1:pos:R:3:forces:R:3 energy=-4.7280764043817225 pbc="F F F"
C        0.00000000       0.00000000       0.00000000       0.00000000       0.00000000      -0.02655308
C        0.00000000       0.00000000       5.35333333       0.00000000       0.00000000       0.02655308
2
Properties=species:S:1:pos:R:3:forces:R:3 energy=-4.73011315903902 pbc="F F F"
C        0.00000000       0.00000000       0.00000000       0.00000000       0.00000000      -0.04232810
C        0.00000000       0.00000000       5.41212121       0.00000000       0.00000000       0.04232810
2
Properties=species:S:1:pos:R:3:forces:R:3 energy=-4.732860129554779 pbc="F F F"
C        0.00000000       0.00000000       0.00000000       0.00000000       0.00000000      -0.04843218
C        0.00000000       0.00000000       5.47090909       0.00000000       0.00000000       0.04843218
2
Properties=species:S:1:pos:R:3:forces:R:3 energy=-4.735510407076953 pbc="F F F"
C        0.00000000       0.00000000       0.00000000       0.00000000       0.00000000      -0.04038437
C        0.00000000       0.00000000       5.52969697       0.00000000       0.00000000       0.04038437
2
Properties=species:S:1:pos:R:3:forces:R:3 energy=-4.737654760488691 pbc="F F F"
C        0.00000000       0.00000000       0.00000000       0.00000000       0.00000000      -0.03412818
C        0.00000000       0.00000000       5.58848485       0.00000000       0.00000000       0.03412818
2
Properties=species:S:1:pos:R:3:forces:R:3 energy=-4.739684562421091 pbc="F F F"
C        0.00000000       0.00000000       0.00000000       0.00000000       0.00000000      -0.03555050
C        0.00000000       0.00000000       5.64727273       0.00000000       0.00000000       0.03555050
2
Properties=species:S:1:pos:R:3:forces:R:3 energy=-4.741762300600485 pbc="F F F"
C        0.00000000       0.00000000       0.00000000       0.00000000       0.00000000      -0.03327101
C        0.00000000       0.00000000       5.70606061       0.00000000       0.00000000       0.03327101
2
Properties=species:S:1:pos:R:3:forces:R:3 energy=-4.743328054854509 pbc="F F F"
C        0.00000000       0.00000000       0.00000000       0.00000000       0.00000000      -0.01814453
C        0.00000000       0.00000000       5.76484848       0.00000000       0.00000000       0.01814453
2
Properties=species:S:1:pos:R:3:forces:R:3 energy=-4.743892952460439 pbc="F F F"
C        0.00000000       0.00000000       0.00000000       0.00000000       0.00000000      -0.00262282
C        0.00000000       0.00000000       5.82363636       0.00000000       0.00000000       0.00262282
2
Properties=species:S:1:pos:R:3:forces:R:3 energy=-4.7438636219181 pbc="F F F"
C        0.00000000       0.00000000       0.00000000       0.00000000       0.00000000       0.00203678
C        0.00000000       0.00000000       5.88242424       0.00000000       0.00000000      -0.00203678
2
Properties=species:S:1:pos:R:3:forces:R:3 energy=-4.7437563666495715 pbc="F F F"
C        0.00000000       0.00000000       0.00000000       0.00000000       0.00000000       0.00131072
C        0.00000000       0.00000000       5.94121212       0.00000000       0.00000000      -0.00131072
2
Properties=species:S:1:pos:R:3:forces:R:3 energy=-4.74370649872194 pbc="F F F"
C        0.00000000       0.00000000       0.00000000       0.00000000       0.00000000       0.00058790
C        0.00000000       0.00000000       6.00000000       0.00000000       0.00000000      -0.00058790
