2
Properties=species:S:1:pos:R:3:forces:R:3 energy=39714.219137863576 pbc="F F F"
Cd       0.00000000       0.00000000       0.00000000       0.00000000       0.00000000 -950874.50000000
Cd       0.00000000       0.00000000       0.10000000       0.00000000       0.00000000  950874.50000000
2
Properties=species:S:1:pos:R:3:forces:R:3 energy=11735.159567551078 pbc="F F F"
Cd       0.00000000       0.00000000       0.00000000       0.00000000       0.00000000 -207748.37500000
Cd       0.00000000       0.00000000       0.15959596       0.00000000       0.00000000  207748.37500000
2
Properties=species:S:1:pos:R:3:forces:R:3 energy=4578.279684738578 pbc="F F F"
Cd       0.00000000       0.00000000       0.00000000       0.00000000       0.00000000  -64523.06640625
Cd       0.00000000       0.00000000       0.21919192       0.00000000       0.00000000   64523.06640625
2
Properties=species:S:1:pos:R:3:forces:R:3 energy=2178.5316378635775 pbc="F F F"
Cd       0.00000000       0.00000000       0.00000000       0.00000000       0.00000000  -23303.81445312
Cd       0.00000000       0.00000000       0.27878788       0.00000000       0.00000000   23303.81445312
2
Properties=species:S:1:pos:R:3:forces:R:3 energy=1318.6642062229525 pbc="F F F"
Cd       0.00000000       0.00000000       0.00000000       0.00000000       0.00000000   -7742.00732422
Cd       0.00000000       0.00000000       0.33838384       0.00000000       0.00000000    7742.00732422
2
Properties=species:S:1:pos:R:3:forces:R:3 energy=1092.1915499729525 pbc="F F F"
Cd       0.00000000       0.00000000       0.00000000       0.00000000       0.00000000    -752.97302246
Cd       0.00000000       0.00000000       0.39797980       0.00000000       0.00000000     752.97302246
2
Properties=species:S:1:pos:R:3:forces:R:3 energy=1082.4391085682864 pbc="F F F"
Cd       0.00000000       0.00000000       0.00000000       0.00000000       0.00000000   -2025.35485840
Cd       0.00000000       0.00000000       0.45757576       0.00000000       0.00000000    2025.35485840
2
Properties=species:S:1:pos:R:3:forces:R:3 energy=950.9406954847249 pbc="F F F"
Cd       0.00000000       0.00000000       0.00000000       0.00000000       0.00000000   -2072.24975586
Cd       0.00000000       0.00000000       0.51717172       0.00000000       0.00000000    2072.24975586
2
Properties=species:S:1:pos:R:3:forces:R:3 energy=821.0871798628926 pbc="F F F"
Cd       0.00000000       0.00000000       0.00000000       0.00000000       0.00000000   -2329.89550781
Cd       0.00000000       0.00000000       0.57676768       0.00000000       0.00000000    2329.89550781
2
Properties=species:S:1:pos:R:3:forces:R:3 energy=670.1424166864265 pbc="F F F"
Cd       0.00000000       0.00000000       0.00000000       0.00000000       0.00000000   -3111.02075195
Cd       0.00000000       0.00000000       0.63636364       0.00000000       0.00000000    3111.02075195
2
Properties=species:S:1:pos:R:3:forces:R:3 energy=516.2251803701809 pbc="F F F"
Cd       0.00000000       0.00000000       0.00000000       0.00000000       0.00000000   -2045.76452637
Cd       0.00000000       0.00000000       0.69595960       0.00000000       0.00000000    2045.76452637
2
Properties=species:S:1:pos:R:3:forces:R:3 energy=432.7740085118119 pbc="F F F"
Cd       0.00000000       0.00000000       0.00000000       0.00000000       0.00000000    -843.38592529
Cd       0.00000000       0.00000000       0.75555556       0.00000000       0.00000000     843.38592529
2
Properties=species:S:1:pos:R:3:forces:R:3 energy=368.0750949621438 pbc="F F F"
Cd       0.00000000       0.00000000       0.00000000       0.00000000       0.00000000   -1000.44946289
Cd       0.00000000       0.00000000       0.81515152       0.00000000       0.00000000    1000.44946289
2
Properties=species:S:1:pos:R:3:forces:R:3 energy=315.62508279154247 pbc="F F F"
Cd       0.00000000       0.00000000       0.00000000       0.00000000       0.00000000    -818.87109375
Cd       0.00000000       0.00000000       0.87474747       0.00000000       0.00000000     818.87109375
2
Properties=species:S:1:pos:R:3:forces:R:3 energy=265.2573460258214 pbc="F F F"
Cd       0.00000000       0.00000000       0.00000000       0.00000000       0.00000000    -839.36035156
Cd       0.00000000       0.00000000       0.93434343       0.00000000       0.00000000     839.36035156
2
Properties=species:S:1:pos:R:3:forces:R:3 energy=215.10710805919607 pbc="F F F"
Cd       0.00000000       0.00000000       0.00000000       0.00000000       0.00000000    -847.03723145
Cd       0.00000000       0.00000000       0.99393939       0.00000000       0.00000000     847.03723145
2
Properties=species:S:1:pos:R:3:forces:R:3 energy=166.14209655675907 pbc="F F F"
Cd       0.00000000       0.00000000       0.00000000       0.00000000       0.00000000    -787.35009766
Cd       0.00000000       0.00000000       1.05353535       0.00000000       0.00000000     787.35009766
2
Properties=species:S:1:pos:R:3:forces:R:3 energy=121.6515876510608 pbc="F F F"
Cd       0.00000000       0.00000000       0.00000000       0.00000000       0.00000000    -705.24102783
Cd       0.00000000       0.00000000       1.11313131       0.00000000       0.00000000     705.24102783
2
Properties=species:S:1:pos:R:3:forces:R:3 energy=82.25884184489982 pbc="F F F"
Cd       0.00000000       0.00000000       0.00000000       0.00000000       0.00000000    -611.64648438
Cd       0.00000000       0.00000000       1.17272727       0.00000000       0.00000000     611.64648438
2
Properties=species:S:1:pos:R:3:forces:R:3 energy=49.665168353465084 pbc="F F F"
Cd       0.00000000       0.00000000       0.00000000       0.00000000       0.00000000    -475.92883301
Cd       0.00000000       0.00000000       1.23232323       0.00000000       0.00000000     475.92883301
2
Properties=species:S:1:pos:R:3:forces:R:3 energy=25.480071886759042 pbc="F F F"
Cd       0.00000000       0.00000000       0.00000000       0.00000000       0.00000000    -341.75869751
Cd       0.00000000       0.00000000       1.29191919       0.00000000       0.00000000     341.75869751
2
Properties=species:S:1:pos:R:3:forces:R:3 energy=8.236191008841585 pbc="F F F"
Cd       0.00000000       0.00000000       0.00000000       0.00000000       0.00000000    -240.64295959
Cd       0.00000000       0.00000000       1.35151515       0.00000000       0.00000000     240.64295959
2
Properties=species:S:1:pos:R:3:forces:R:3 energy=-3.60267955857209 pbc="F F F"
Cd       0.00000000       0.00000000       0.00000000       0.00000000       0.00000000    -161.11650085
Cd       0.00000000       0.00000000       1.41111111       0.00000000       0.00000000     161.11650085
2
Properties=species:S:1:pos:R:3:forces:R:3 energy=-11.575739627160527 pbc="F F F"
Cd       0.00000000       0.00000000       0.00000000       0.00000000       0.00000000    -111.10940552
Cd       0.00000000       0.00000000       1.47070707       0.00000000       0.00000000     111.10940552
2
Properties=species:S:1:pos:R:3:forces:R:3 energy=-17.255386409972452 pbc="F F F"
Cd       0.00000000       0.00000000       0.00000000       0.00000000       0.00000000     -81.80988312
Cd       0.00000000       0.00000000       1.53030303       0.00000000       0.00000000      81.80988312
2
Properties=species:S:1:pos:R:3:forces:R:3 energy=-21.520331584480612 pbc="F F F"
Cd       0.00000000       0.00000000       0.00000000       0.00000000       0.00000000     -62.49714661
Cd       0.00000000       0.00000000       1.58989899       0.00000000       0.00000000      62.49714661
2
Properties=species:S:1:pos:R:3:forces:R:3 energy=-24.815685449555172 pbc="F F F"
Cd       0.00000000       0.00000000       0.00000000       0.00000000       0.00000000     -48.83472061
Cd       0.00000000       0.00000000       1.64949495       0.00000000       0.00000000      48.83472061
2
Properties=species:S:1:pos:R:3:forces:R:3 energy=-27.41203972123709 pbc="F F F"
Cd       0.00000000       0.00000000       0.00000000       0.00000000       0.00000000     -38.76881027
Cd       0.00000000       0.00000000       1.70909091       0.00000000       0.00000000      38.76881027
2
Properties=species:S:1:pos:R:3:forces:R:3 energy=-29.482043737929818 pbc="F F F"
Cd       0.00000000       0.00000000       0.00000000       0.00000000       0.00000000     -31.00962830
Cd       0.00000000       0.00000000       1.76868687       0.00000000       0.00000000      31.00962830
2
Properties=species:S:1:pos:R:3:forces:R:3 energy=-31.139686371224396 pbc="F F F"
Cd       0.00000000       0.00000000       0.00000000       0.00000000       0.00000000     -24.85017967
Cd       0.00000000       0.00000000       1.82828283       0.00000000       0.00000000      24.85017967
2
Properties=species:S:1:pos:R:3:forces:R:3 energy=-32.46857243691072 pbc="F F F"
Cd       0.00000000       0.00000000       0.00000000       0.00000000       0.00000000     -19.93271637
Cd       0.00000000       0.00000000       1.88787879       0.00000000       0.00000000      19.93271637
2
Properties=species:S:1:pos:R:3:forces:R:3 energy=-33.5357280938853 pbc="F F F"
Cd       0.00000000       0.00000000       0.00000000       0.00000000       0.00000000     -16.03414917
Cd       0.00000000       0.00000000       1.94747475       0.00000000       0.00000000      16.03414917
2
Properties=species:S:1:pos:R:3:forces:R:3 energy=-34.3962987056064 pbc="F F F"
Cd       0.00000000       0.00000000       0.00000000       0.00000000       0.00000000     -12.97079182
Cd       0.00000000       0.00000000       2.00707071       0.00000000       0.00000000      12.97079182
2
Properties=species:S:1:pos:R:3:forces:R:3 energy=-35.09496222740462 pbc="F F F"
Cd       0.00000000       0.00000000       0.00000000       0.00000000       0.00000000     -10.57334137
Cd       0.00000000       0.00000000       2.06666667       0.00000000       0.00000000      10.57334137
2
Properties=species:S:1:pos:R:3:forces:R:3 energy=-35.66664646460348 pbc="F F F"
Cd       0.00000000       0.00000000       0.00000000       0.00000000       0.00000000      -8.68468571
Cd       0.00000000       0.00000000       2.12626263       0.00000000       0.00000000       8.68468571
2
Properties=species:S:1:pos:R:3:forces:R:3 energy=-36.137524836802555 pbc="F F F"
Cd       0.00000000       0.00000000       0.00000000       0.00000000       0.00000000      -7.17079258
Cd       0.00000000       0.00000000       2.18585859       0.00000000       0.00000000       7.17079258
2
Properties=species:S:1:pos:R:3:forces:R:3 energy=-36.52678663261949 pbc="F F F"
Cd       0.00000000       0.00000000       0.00000000       0.00000000       0.00000000      -5.93173456
Cd       0.00000000       0.00000000       2.24545455       0.00000000       0.00000000       5.93173456
2
Properties=species:S:1:pos:R:3:forces:R:3 energy=-36.84864763946108 pbc="F F F"
Cd       0.00000000       0.00000000       0.00000000       0.00000000       0.00000000      -4.89994335
Cd       0.00000000       0.00000000       2.30505051       0.00000000       0.00000000       4.89994335
2
Properties=species:S:1:pos:R:3:forces:R:3 energy=-37.11403287722395 pbc="F F F"
Cd       0.00000000       0.00000000       0.00000000       0.00000000       0.00000000      -4.03038931
Cd       0.00000000       0.00000000       2.36464646       0.00000000       0.00000000       4.03038931
2
Properties=species:S:1:pos:R:3:forces:R:3 energy=-37.331645326502596 pbc="F F F"
Cd       0.00000000       0.00000000       0.00000000       0.00000000       0.00000000      -3.29262590
Cd       0.00000000       0.00000000       2.42424242       0.00000000       0.00000000       3.29262590
2
Properties=species:S:1:pos:R:3:forces:R:3 energy=-37.50869921369584 pbc="F F F"
Cd       0.00000000       0.00000000       0.00000000       0.00000000       0.00000000      -2.66654873
Cd       0.00000000       0.00000000       2.48383838       0.00000000       0.00000000       2.66654873
2
Properties=species:S:1:pos:R:3:forces:R:3 energy=-37.651424648696334 pbc="F F F"
Cd       0.00000000       0.00000000       0.00000000       0.00000000       0.00000000      -2.13860345
Cd       0.00000000       0.00000000       2.54343434       0.00000000       0.00000000       2.13860345
2
Properties=species:S:1:pos:R:3:forces:R:3 energy=-37.765328361125526 pbc="F F F"
Cd       0.00000000       0.00000000       0.00000000       0.00000000       0.00000000      -1.69730377
Cd       0.00000000       0.00000000       2.60303030       0.00000000       0.00000000       1.69730377
2
Properties=species:S:1:pos:R:3:forces:R:3 energy=-37.855194927072795 pbc="F F F"
Cd       0.00000000       0.00000000       0.00000000       0.00000000       0.00000000      -1.32961524
Cd       0.00000000       0.00000000       2.66262626       0.00000000       0.00000000       1.32961524
2
Properties=species:S:1:pos:R:3:forces:R:3 energy=-37.924971481577025 pbc="F F F"
Cd       0.00000000       0.00000000       0.00000000       0.00000000       0.00000000      -1.02046037
Cd       0.00000000       0.00000000       2.72222222       0.00000000       0.00000000       1.02046037
2
Properties=species:S:1:pos:R:3:forces:R:3 energy=-37.977695849671164 pbc="F F F"
Cd       0.00000000       0.00000000       0.00000000       0.00000000       0.00000000      -0.75518739
Cd       0.00000000       0.00000000       2.78181818       0.00000000       0.00000000       0.75518739
2
Properties=species:S:1:pos:R:3:forces:R:3 energy=-38.01563142361861 pbc="F F F"
Cd       0.00000000       0.00000000       0.00000000       0.00000000       0.00000000      -0.52274954
Cd       0.00000000       0.00000000       2.84141414       0.00000000       0.00000000       0.52274954
2
Properties=species:S:1:pos:R:3:forces:R:3 energy=-38.040531888926004 pbc="F F F"
Cd       0.00000000       0.00000000       0.00000000       0.00000000       0.00000000      -0.31716868
Cd       0.00000000       0.00000000       2.90101010       0.00000000       0.00000000       0.31716868
2
Properties=species:S:1:pos:R:3:forces:R:3 energy=-38.053943874120634 pbc="F F F"
Cd       0.00000000       0.00000000       0.00000000       0.00000000       0.00000000      -0.13745712
Cd       0.00000000       0.00000000       2.96060606       0.00000000       0.00000000       0.13745712
2
Properties=species:S:1:pos:R:3:forces:R:3 energy=-38.05749304470395 pbc="F F F"
Cd       0.00000000       0.00000000       0.00000000       0.00000000       0.00000000       0.01321674
Cd       0.00000000       0.00000000       3.02020202       0.00000000       0.00000000      -0.01321674
2
Properties=species:S:1:pos:R:3:forces:R:3 energy=-38.05303888951748 pbc="F F F"
Cd       0.00000000       0.00000000       0.00000000       0.00000000       0.00000000       0.13033347
Cd       0.00000000       0.00000000       3.07979798       0.00000000       0.00000000      -0.13033347
2
Properties=species:S:1:pos:R:3:forces:R:3 energy=-38.042673018830335 pbc="F F F"
Cd       0.00000000       0.00000000       0.00000000       0.00000000       0.00000000       0.21148825
Cd       0.00000000       0.00000000       3.13939394       0.00000000       0.00000000      -0.21148825
2
Properties=species:S:1:pos:R:3:forces:R:3 energy=-38.02853349780298 pbc="F F F"
Cd       0.00000000       0.00000000       0.00000000       0.00000000       0.00000000       0.25739267
Cd       0.00000000       0.00000000       3.19898990       0.00000000       0.00000000      -0.25739267
2
Properties=species:S:1:pos:R:3:forces:R:3 energy=-38.01263090180827 pbc="F F F"
Cd       0.00000000       0.00000000       0.00000000       0.00000000       0.00000000       0.27129775
Cd       0.00000000       0.00000000       3.25858586       0.00000000       0.00000000      -0.27129775
2
Properties=species:S:1:pos:R:3:forces:R:3 energy=-37.996728422412765 pbc="F F F"
Cd       0.00000000       0.00000000       0.00000000       0.00000000       0.00000000       0.25847331
Cd       0.00000000       0.00000000       3.31818182       0.00000000       0.00000000      -0.25847331
2
Properties=species:S:1:pos:R:3:forces:R:3 energy=-37.98221760395758 pbc="F F F"
Cd       0.00000000       0.00000000       0.00000000       0.00000000       0.00000000       0.22578493
Cd       0.00000000       0.00000000       3.37777778       0.00000000       0.00000000      -0.22578493
2
Properties=species:S:1:pos:R:3:forces:R:3 energy=-37.97005785515661 pbc="F F F"
Cd       0.00000000       0.00000000       0.00000000       0.00000000       0.00000000       0.18102230
Cd       0.00000000       0.00000000       3.43737374       0.00000000       0.00000000      -0.18102230
2
Properties=species:S:1:pos:R:3:forces:R:3 energy=-37.96072637113197 pbc="F F F"
Cd       0.00000000       0.00000000       0.00000000       0.00000000       0.00000000       0.13195921
Cd       0.00000000       0.00000000       3.49696970       0.00000000       0.00000000      -0.13195921
2
Properties=species:S:1:pos:R:3:forces:R:3 energy=-37.954280212367614 pbc="F F F"
Cd       0.00000000       0.00000000       0.00000000       0.00000000       0.00000000       0.08528560
Cd       0.00000000       0.00000000       3.55656566       0.00000000       0.00000000      -0.08528560
2
Properties=species:S:1:pos:R:3:forces:R:3 energy=-37.950417732675575 pbc="F F F"
Cd       0.00000000       0.00000000       0.00000000       0.00000000       0.00000000       0.04570337
Cd       0.00000000       0.00000000       3.61616162       0.00000000       0.00000000      -0.04570337
2
Properties=species:S:1:pos:R:3:forces:R:3 energy=-37.94864268878999 pbc="F F F"
Cd       0.00000000       0.00000000       0.00000000       0.00000000       0.00000000       0.01548063
Cd       0.00000000       0.00000000       3.67575758       0.00000000       0.00000000      -0.01548063
2
Properties=species:S:1:pos:R:3:forces:R:3 energy=-37.94838634710957 pbc="F F F"
Cd       0.00000000       0.00000000       0.00000000       0.00000000       0.00000000      -0.00539877
Cd       0.00000000       0.00000000       3.73535354       0.00000000       0.00000000       0.00539877
2
Properties=species:S:1:pos:R:3:forces:R:3 energy=-37.94913337821086 pbc="F F F"
Cd       0.00000000       0.00000000       0.00000000       0.00000000       0.00000000      -0.01859484
Cd       0.00000000       0.00000000       3.79494949       0.00000000       0.00000000       0.01859484
2
Properties=species:S:1:pos:R:3:forces:R:3 energy=-37.95049816504869 pbc="F F F"
Cd       0.00000000       0.00000000       0.00000000       0.00000000       0.00000000      -0.02656592
Cd       0.00000000       0.00000000       3.85454545       0.00000000       0.00000000       0.02656592
2
Properties=species:S:1:pos:R:3:forces:R:3 energy=-37.95224769430765 pbc="F F F"
Cd       0.00000000       0.00000000       0.00000000       0.00000000       0.00000000      -0.03181656
Cd       0.00000000       0.00000000       3.91414141       0.00000000       0.00000000       0.03181656
2
Properties=species:S:1:pos:R:3:forces:R:3 energy=-37.95427866663456 pbc="F F F"
Cd       0.00000000       0.00000000       0.00000000       0.00000000       0.00000000      -0.03640695
Cd       0.00000000       0.00000000       3.97373737       0.00000000       0.00000000       0.03640695
2
Properties=species:S:1:pos:R:3:forces:R:3 energy=-37.95660225844023 pbc="F F F"
Cd       0.00000000       0.00000000       0.00000000       0.00000000       0.00000000      -0.04174142
Cd       0.00000000       0.00000000       4.03333333       0.00000000       0.00000000       0.04174142
2
Properties=species:S:1:pos:R:3:forces:R:3 energy=-37.959283064568496 pbc="F F F"
Cd       0.00000000       0.00000000       0.00000000       0.00000000       0.00000000      -0.04856289
Cd       0.00000000       0.00000000       4.09292929       0.00000000       0.00000000       0.04856289
2
Properties=species:S:1:pos:R:3:forces:R:3 energy=-37.96242387435319 pbc="F F F"
Cd       0.00000000       0.00000000       0.00000000       0.00000000       0.00000000      -0.05705113
Cd       0.00000000       0.00000000       4.15252525       0.00000000       0.00000000       0.05705113
2
Properties=species:S:1:pos:R:3:forces:R:3 energy=-37.9661122674403 pbc="F F F"
Cd       0.00000000       0.00000000       0.00000000       0.00000000       0.00000000      -0.06695741
Cd       0.00000000       0.00000000       4.21212121       0.00000000       0.00000000       0.06695741
2
Properties=species:S:1:pos:R:3:forces:R:3 energy=-37.970420590029356 pbc="F F F"
Cd       0.00000000       0.00000000       0.00000000       0.00000000       0.00000000      -0.07773638
Cd       0.00000000       0.00000000       4.27171717       0.00000000       0.00000000       0.07773638
2
Properties=species:S:1:pos:R:3:forces:R:3 energy=-37.97538311262321 pbc="F F F"
Cd       0.00000000       0.00000000       0.00000000       0.00000000       0.00000000      -0.08867279
Cd       0.00000000       0.00000000       4.33131313       0.00000000       0.00000000       0.08867279
2
Properties=species:S:1:pos:R:3:forces:R:3 energy=-37.98097693278307 pbc="F F F"
Cd       0.00000000       0.00000000       0.00000000       0.00000000       0.00000000      -0.09899275
Cd       0.00000000       0.00000000       4.39090909       0.00000000       0.00000000       0.09899275
2
Properties=species:S:1:pos:R:3:forces:R:3 energy=-37.98715251408941 pbc="F F F"
Cd       0.00000000       0.00000000       0.00000000       0.00000000       0.00000000      -0.10796219
Cd       0.00000000       0.00000000       4.45050505       0.00000000       0.00000000       0.10796219
2
Properties=species:S:1:pos:R:3:forces:R:3 energy=-37.993806980093304 pbc="F F F"
Cd       0.00000000       0.00000000       0.00000000       0.00000000       0.00000000      -0.11496285
Cd       0.00000000       0.00000000       4.51010101       0.00000000       0.00000000       0.11496285
2
Properties=species:S:1:pos:R:3:forces:R:3 energy=-38.000807001708054 pbc="F F F"
Cd       0.00000000       0.00000000       0.00000000       0.00000000       0.00000000      -0.11954893
Cd       0.00000000       0.00000000       4.56969697       0.00000000       0.00000000       0.11954893
2
Properties=species:S:1:pos:R:3:forces:R:3 energy=-38.00800407658909 pbc="F F F"
Cd       0.00000000       0.00000000       0.00000000       0.00000000       0.00000000      -0.12146871
Cd       0.00000000       0.00000000       4.62929293       0.00000000       0.00000000       0.12146871
2
Properties=species:S:1:pos:R:3:forces:R:3 energy=-38.01523069463782 pbc="F F F"
Cd       0.00000000       0.00000000       0.00000000       0.00000000       0.00000000      -0.12068197
Cd       0.00000000       0.00000000       4.68888889       0.00000000       0.00000000       0.12068197
2
Properties=species:S:1:pos:R:3:forces:R:3 energy=-38.022338500813426 pbc="F F F"
Cd       0.00000000       0.00000000       0.00000000       0.00000000       0.00000000      -0.11735127
Cd       0.00000000       0.00000000       4.74848485       0.00000000       0.00000000       0.11735127
2
Properties=species:S:1:pos:R:3:forces:R:3 energy=-38.02917538873424 pbc="F F F"
Cd       0.00000000       0.00000000       0.00000000       0.00000000       0.00000000      -0.11183739
Cd       0.00000000       0.00000000       4.80808081       0.00000000       0.00000000       0.11183739
2
Properties=species:S:1:pos:R:3:forces:R:3 energy=-38.035635112333075 pbc="F F F"
Cd       0.00000000       0.00000000       0.00000000       0.00000000       0.00000000      -0.10468841
Cd       0.00000000       0.00000000       4.86767677       0.00000000       0.00000000       0.10468841
2
Properties=species:S:1:pos:R:3:forces:R:3 energy=-38.04163438183452 pbc="F F F"
Cd       0.00000000       0.00000000       0.00000000       0.00000000       0.00000000      -0.09661882
Cd       0.00000000       0.00000000       4.92727273       0.00000000       0.00000000       0.09661882
2
Properties=species:S:1:pos:R:3:forces:R:3 energy=-38.04715099647239 pbc="F F F"
Cd       0.00000000       0.00000000       0.00000000       0.00000000       0.00000000      -0.08847120
Cd       0.00000000       0.00000000       4.98686869       0.00000000       0.00000000       0.08847120
2
Properties=species:S:1:pos:R:3:forces:R:3 energy=-38.05219715269623 pbc="F F F"
Cd       0.00000000       0.00000000       0.00000000       0.00000000       0.00000000      -0.08110258
Cd       0.00000000       0.00000000       5.04646465       0.00000000       0.00000000       0.08110258
2
Properties=species:S:1:pos:R:3:forces:R:3 energy=-38.05684612012573 pbc="F F F"
Cd       0.00000000       0.00000000       0.00000000       0.00000000       0.00000000      -0.07518984
Cd       0.00000000       0.00000000       5.10606061       0.00000000       0.00000000       0.07518984
2
Properties=species:S:1:pos:R:3:forces:R:3 energy=-38.06119409932975 pbc="F F F"
Cd       0.00000000       0.00000000       0.00000000       0.00000000       0.00000000      -0.07096454
Cd       0.00000000       0.00000000       5.16565657       0.00000000       0.00000000       0.07096454
2
Properties=species:S:1:pos:R:3:forces:R:3 energy=-38.06532969157693 pbc="F F F"
Cd       0.00000000       0.00000000       0.00000000       0.00000000       0.00000000      -0.06799147
Cd       0.00000000       0.00000000       5.22525253       0.00000000       0.00000000       0.06799147
2
Properties=species:S:1:pos:R:3:forces:R:3 energy=-38.069299544385544 pbc="F F F"
Cd       0.00000000       0.00000000       0.00000000       0.00000000       0.00000000      -0.06519911
Cd       0.00000000       0.00000000       5.28484848       0.00000000       0.00000000       0.06519911
2
Properties=species:S:1:pos:R:3:forces:R:3 energy=-38.07308165577025 pbc="F F F"
Cd       0.00000000       0.00000000       0.00000000       0.00000000       0.00000000      -0.06140658
Cd       0.00000000       0.00000000       5.34444444       0.00000000       0.00000000       0.06140658
2
Properties=species:S:1:pos:R:3:forces:R:3 energy=-38.07659297195839 pbc="F F F"
Cd       0.00000000       0.00000000       0.00000000       0.00000000       0.00000000      -0.05631350
Cd       0.00000000       0.00000000       5.40404040       0.00000000       0.00000000       0.05631350
2
Properties=species:S:1:pos:R:3:forces:R:3 energy=-38.079788579814306 pbc="F F F"
Cd       0.00000000       0.00000000       0.00000000       0.00000000       0.00000000      -0.05097570
Cd       0.00000000       0.00000000       5.46363636       0.00000000       0.00000000       0.05097570
2
Properties=species:S:1:pos:R:3:forces:R:3 energy=-38.082680750231376 pbc="F F F"
Cd       0.00000000       0.00000000       0.00000000       0.00000000       0.00000000      -0.04616799
Cd       0.00000000       0.00000000       5.52323232       0.00000000       0.00000000       0.04616799
2
Properties=species:S:1:pos:R:3:forces:R:3 energy=-38.08529317364415 pbc="F F F"
Cd       0.00000000       0.00000000       0.00000000       0.00000000       0.00000000      -0.04154826
Cd       0.00000000       0.00000000       5.58282828       0.00000000       0.00000000       0.04154826
2
Properties=species:S:1:pos:R:3:forces:R:3 energy=-38.087630407604195 pbc="F F F"
Cd       0.00000000       0.00000000       0.00000000       0.00000000       0.00000000      -0.03675141
Cd       0.00000000       0.00000000       5.64242424       0.00000000       0.00000000       0.03675141
2
Properties=species:S:1:pos:R:3:forces:R:3 energy=-38.089639748022385 pbc="F F F"
Cd       0.00000000       0.00000000       0.00000000       0.00000000       0.00000000      -0.03012522
Cd       0.00000000       0.00000000       5.70202020       0.00000000       0.00000000       0.03012522
2
Properties=species:S:1:pos:R:3:forces:R:3 energy=-38.0911539920789 pbc="F F F"
Cd       0.00000000       0.00000000       0.00000000       0.00000000       0.00000000      -0.02021912
Cd       0.00000000       0.00000000       5.76161616       0.00000000       0.00000000       0.02021912
2
Properties=species:S:1:pos:R:3:forces:R:3 energy=-38.092013499824155 pbc="F F F"
Cd       0.00000000       0.00000000       0.00000000       0.00000000       0.00000000      -0.00884880
Cd       0.00000000       0.00000000       5.82121212       0.00000000       0.00000000       0.00884880
2
Properties=species:S:1:pos:R:3:forces:R:3 energy=-38.092272196542716 pbc="F F F"
Cd       0.00000000       0.00000000       0.00000000       0.00000000       0.00000000      -0.00063087
Cd       0.00000000       0.00000000       5.88080808       0.00000000       0.00000000       0.00063087
2
Properties=species:S:1:pos:R:3:forces:R:3 energy=-38.09217848421976 pbc="F F F"
Cd       0.00000000       0.00000000       0.00000000       0.00000000       0.00000000       0.00317025
Cd       0.00000000       0.00000000       5.94040404       0.00000000       0.00000000      -0.00317025
2
Properties=species:S:1:pos:R:3:forces:R:3 energy=-38.09195018905362 pbc="F F F"
Cd       0.00000000       0.00000000       0.00000000       0.00000000       0.00000000       0.00415783
Cd       0.00000000       0.00000000       6.00000000       0.00000000       0.00000000      -0.00415783
