2
Properties=species:S:1:pos:R:3:forces:R:3 energy=1053675.9936109337 pbc="F F F"
Ce       0.00000000       0.00000000       0.00000000       0.00000000       0.00000000 -274770.81250000
Ce       0.00000000       0.00000000       0.18000000       0.00000000       0.00000000  274770.81250000
2
Properties=species:S:1:pos:R:3:forces:R:3 energy=1037550.7436109335 pbc="F F F"
Ce       0.00000000       0.00000000       0.00000000       0.00000000       0.00000000 -317977.62500000
Ce       0.00000000       0.00000000       0.23878788       0.00000000       0.00000000  317977.62500000
2
Properties=species:S:1:pos:R:3:forces:R:3 energy=1011990.9311109335 pbc="F F F"
Ce       0.00000000       0.00000000       0.00000000       0.00000000       0.00000000 -582978.50000000
Ce       0.00000000       0.00000000       0.29757576       0.00000000       0.00000000  582978.50000000
2
Properties=species:S:1:pos:R:3:forces:R:3 energy=965359.3686109335 pbc="F F F"
Ce       0.00000000       0.00000000       0.00000000       0.00000000       0.00000000 -1034054.93750000
Ce       0.00000000       0.00000000       0.35636364       0.00000000       0.00000000 1034054.93750000
2
Properties=species:S:1:pos:R:3:forces:R:3 energy=887149.5561109335 pbc="F F F"
Ce       0.00000000       0.00000000       0.00000000       0.00000000       0.00000000 -1649819.25000000
Ce       0.00000000       0.00000000       0.41515152       0.00000000       0.00000000 1649819.25000000
2
Properties=species:S:1:pos:R:3:forces:R:3 energy=769771.1186109344 pbc="F F F"
Ce       0.00000000       0.00000000       0.00000000       0.00000000       0.00000000 -2345311.75000000
Ce       0.00000000       0.00000000       0.47393939       0.00000000       0.00000000 2345311.75000000
2
Properties=species:S:1:pos:R:3:forces:R:3 energy=613240.6811109344 pbc="F F F"
Ce       0.00000000       0.00000000       0.00000000       0.00000000       0.00000000 -2944197.25000000
Ce       0.00000000       0.00000000       0.53272727       0.00000000       0.00000000 2944197.25000000
2
Properties=species:S:1:pos:R:3:forces:R:3 energy=434590.9623609351 pbc="F F F"
Ce       0.00000000       0.00000000       0.00000000       0.00000000       0.00000000 -3095838.50000000
Ce       0.00000000       0.00000000       0.59151515       0.00000000       0.00000000 3095838.50000000
2
Properties=species:S:1:pos:R:3:forces:R:3 energy=257411.66548593593 pbc="F F F"
Ce       0.00000000       0.00000000       0.00000000       0.00000000       0.00000000 -2835051.00000000
Ce       0.00000000       0.00000000       0.65030303       0.00000000       0.00000000 2835051.00000000
2
Properties=species:S:1:pos:R:3:forces:R:3 energy=115479.52486093673 pbc="F F F"
Ce       0.00000000       0.00000000       0.00000000       0.00000000       0.00000000 -1829625.50000000
Ce       0.00000000       0.00000000       0.70909091       0.00000000       0.00000000 1829625.50000000
2
Properties=species:S:1:pos:R:3:forces:R:3 energy=33047.1264234387 pbc="F F F"
Ce       0.00000000       0.00000000       0.00000000       0.00000000       0.00000000 -968401.50000000
Ce       0.00000000       0.00000000       0.76787879       0.00000000       0.00000000  968401.50000000
2
Properties=species:S:1:pos:R:3:forces:R:3 energy=10398.10689219147 pbc="F F F"
Ce       0.00000000       0.00000000       0.00000000       0.00000000       0.00000000 -240102.93750000
Ce       0.00000000       0.00000000       0.82666667       0.00000000       0.00000000  240102.93750000
2
Properties=species:S:1:pos:R:3:forces:R:3 energy=2076.7372632887846 pbc="F F F"
Ce       0.00000000       0.00000000       0.00000000       0.00000000       0.00000000  -84405.18750000
Ce       0.00000000       0.00000000       0.88545455       0.00000000       0.00000000   84405.18750000
2
Properties=species:S:1:pos:R:3:forces:R:3 energy=-48.90192737910371 pbc="F F F"
Ce       0.00000000       0.00000000       0.00000000       0.00000000       0.00000000   -8329.15136719
Ce       0.00000000       0.00000000       0.94424242       0.00000000       0.00000000    8329.15136719
2
Properties=species:S:1:pos:R:3:forces:R:3 energy=-232.53240527724955 pbc="F F F"
Ce       0.00000000       0.00000000       0.00000000       0.00000000       0.00000000    -510.63388062
Ce       0.00000000       0.00000000       1.00303030       0.00000000       0.00000000     510.63388062
2
Properties=species:S:1:pos:R:3:forces:R:3 energy=-143.80334032633982 pbc="F F F"
Ce       0.00000000       0.00000000       0.00000000       0.00000000       0.00000000    4553.47900391
Ce       0.00000000       0.00000000       1.06181818       0.00000000       0.00000000   -4553.47900391
2
Properties=species:S:1:pos:R:3:forces:R:3 energy=-113.82287156287659 pbc="F F F"
Ce       0.00000000       0.00000000       0.00000000       0.00000000       0.00000000    -111.77919006
Ce       0.00000000       0.00000000       1.12060606       0.00000000       0.00000000     111.77919006
2
Properties=species:S:1:pos:R:3:forces:R:3 energy=-118.5945848022895 pbc="F F F"
Ce       0.00000000       0.00000000       0.00000000       0.00000000       0.00000000     -89.18936157
Ce       0.00000000       0.00000000       1.17939394       0.00000000       0.00000000      89.18936157
2
Properties=species:S:1:pos:R:3:forces:R:3 energy=-124.20759137270358 pbc="F F F"
Ce       0.00000000       0.00000000       0.00000000       0.00000000       0.00000000     -82.40087891
Ce       0.00000000       0.00000000       1.23818182       0.00000000       0.00000000      82.40087891
2
Properties=species:S:1:pos:R:3:forces:R:3 energy=-125.36495523579474 pbc="F F F"
Ce       0.00000000       0.00000000       0.00000000       0.00000000       0.00000000      59.99647141
Ce       0.00000000       0.00000000       1.29696970       0.00000000       0.00000000     -59.99647141
2
Properties=species:S:1:pos:R:3:forces:R:3 energy=-118.81910253902393 pbc="F F F"
Ce       0.00000000       0.00000000       0.00000000       0.00000000       0.00000000     136.16047668
Ce       0.00000000       0.00000000       1.35575758       0.00000000       0.00000000    -136.16047668
2
Properties=species:S:1:pos:R:3:forces:R:3 energy=-111.23093721226326 pbc="F F F"
Ce       0.00000000       0.00000000       0.00000000       0.00000000       0.00000000     115.02468872
Ce       0.00000000       0.00000000       1.41454545       0.00000000       0.00000000    -115.02468872
2
Properties=species:S:1:pos:R:3:forces:R:3 energy=-105.55979457949331 pbc="F F F"
Ce       0.00000000       0.00000000       0.00000000       0.00000000       0.00000000      79.47017670
Ce       0.00000000       0.00000000       1.47333333       0.00000000       0.00000000     -79.47017670
2
Properties=species:S:1:pos:R:3:forces:R:3 energy=-101.17700490115264 pbc="F F F"
Ce       0.00000000       0.00000000       0.00000000       0.00000000       0.00000000      78.99726868
Ce       0.00000000       0.00000000       1.53212121       0.00000000       0.00000000     -78.99726868
2
Properties=species:S:1:pos:R:3:forces:R:3 energy=-95.89724255151482 pbc="F F F"
Ce       0.00000000       0.00000000       0.00000000       0.00000000       0.00000000      96.76833344
Ce       0.00000000       0.00000000       1.59090909       0.00000000       0.00000000     -96.76833344
2
Properties=species:S:1:pos:R:3:forces:R:3 energy=-90.18358126025663 pbc="F F F"
Ce       0.00000000       0.00000000       0.00000000       0.00000000       0.00000000      96.12799072
Ce       0.00000000       0.00000000       1.64969697       0.00000000       0.00000000     -96.12799072
2
Properties=species:S:1:pos:R:3:forces:R:3 energy=-84.65532186491151 pbc="F F F"
Ce       0.00000000       0.00000000       0.00000000       0.00000000       0.00000000      92.16247559
Ce       0.00000000       0.00000000       1.70848485       0.00000000       0.00000000     -92.16247559
2
Properties=species:S:1:pos:R:3:forces:R:3 energy=-79.26120246124812 pbc="F F F"
Ce       0.00000000       0.00000000       0.00000000       0.00000000       0.00000000      92.33752441
Ce       0.00000000       0.00000000       1.76727273       0.00000000       0.00000000     -92.33752441
2
Properties=species:S:1:pos:R:3:forces:R:3 energy=-73.71231313398924 pbc="F F F"
Ce       0.00000000       0.00000000       0.00000000       0.00000000       0.00000000      96.59709167
Ce       0.00000000       0.00000000       1.82606061       0.00000000       0.00000000     -96.59709167
2
Properties=species:S:1:pos:R:3:forces:R:3 energy=-68.00504517556185 pbc="F F F"
Ce       0.00000000       0.00000000       0.00000000       0.00000000       0.00000000      95.36688232
Ce       0.00000000       0.00000000       1.88484848       0.00000000       0.00000000     -95.36688232
2
Properties=species:S:1:pos:R:3:forces:R:3 energy=-62.95125008267903 pbc="F F F"
Ce       0.00000000       0.00000000       0.00000000       0.00000000       0.00000000      71.91350555
Ce       0.00000000       0.00000000       1.94363636       0.00000000       0.00000000     -71.91350555
2
Properties=species:S:1:pos:R:3:forces:R:3 energy=-59.7513825628991 pbc="F F F"
Ce       0.00000000       0.00000000       0.00000000       0.00000000       0.00000000      39.13317490
Ce       0.00000000       0.00000000       2.00242424       0.00000000       0.00000000     -39.13317490
2
Properties=species:S:1:pos:R:3:forces:R:3 energy=-58.07937373290052 pbc="F F F"
Ce       0.00000000       0.00000000       0.00000000       0.00000000       0.00000000      18.56524277
Ce       0.00000000       0.00000000       2.06121212       0.00000000       0.00000000     -18.56524277
2
Properties=species:S:1:pos:R:3:forces:R:3 energy=-57.456673628676285 pbc="F F F"
Ce       0.00000000       0.00000000       0.00000000       0.00000000       0.00000000       4.38662767
Ce       0.00000000       0.00000000       2.12000000       0.00000000       0.00000000      -4.38662767
2
Properties=species:S:1:pos:R:3:forces:R:3 energy=-57.362343370995696 pbc="F F F"
Ce       0.00000000       0.00000000       0.00000000       0.00000000       0.00000000      -0.02266522
Ce       0.00000000       0.00000000       2.17878788       0.00000000       0.00000000       0.02266522
2
Properties=species:S:1:pos:R:3:forces:R:3 energy=-57.389270831545105 pbc="F F F"
Ce       0.00000000       0.00000000       0.00000000       0.00000000       0.00000000      -0.66977930
Ce       0.00000000       0.00000000       2.23757576       0.00000000       0.00000000       0.66977930
2
Properties=species:S:1:pos:R:3:forces:R:3 energy=-57.4326853416086 pbc="F F F"
Ce       0.00000000       0.00000000       0.00000000       0.00000000       0.00000000      -0.80193430
Ce       0.00000000       0.00000000       2.29636364       0.00000000       0.00000000       0.80193430
2
Properties=species:S:1:pos:R:3:forces:R:3 energy=-57.4831073693736 pbc="F F F"
Ce       0.00000000       0.00000000       0.00000000       0.00000000       0.00000000      -0.89560109
Ce       0.00000000       0.00000000       2.35515152       0.00000000       0.00000000       0.89560109
2
Properties=species:S:1:pos:R:3:forces:R:3 energy=-57.533926037351186 pbc="F F F"
Ce       0.00000000       0.00000000       0.00000000       0.00000000       0.00000000      -0.78729975
Ce       0.00000000       0.00000000       2.41393939       0.00000000       0.00000000       0.78729975
2
Properties=species:S:1:pos:R:3:forces:R:3 energy=-57.57014957301214 pbc="F F F"
Ce       0.00000000       0.00000000       0.00000000       0.00000000       0.00000000      -0.40315470
Ce       0.00000000       0.00000000       2.47272727       0.00000000       0.00000000       0.40315470
2
Properties=species:S:1:pos:R:3:forces:R:3 energy=-57.5777742127949 pbc="F F F"
Ce       0.00000000       0.00000000       0.00000000       0.00000000       0.00000000       0.15957661
Ce       0.00000000       0.00000000       2.53151515       0.00000000       0.00000000      -0.15957661
2
Properties=species:S:1:pos:R:3:forces:R:3 energy=-57.55135637142612 pbc="F F F"
Ce       0.00000000       0.00000000       0.00000000       0.00000000       0.00000000       0.72505677
Ce       0.00000000       0.00000000       2.59030303       0.00000000       0.00000000      -0.72505677
2
Properties=species:S:1:pos:R:3:forces:R:3 energy=-57.49533252836246 pbc="F F F"
Ce       0.00000000       0.00000000       0.00000000       0.00000000       0.00000000       1.15132725
Ce       0.00000000       0.00000000       2.64909091       0.00000000       0.00000000      -1.15132725
2
Properties=species:S:1:pos:R:3:forces:R:3 energy=-57.41937292850101 pbc="F F F"
Ce       0.00000000       0.00000000       0.00000000       0.00000000       0.00000000       1.40872431
Ce       0.00000000       0.00000000       2.70787879       0.00000000       0.00000000      -1.40872431
2
Properties=species:S:1:pos:R:3:forces:R:3 energy=-57.33160286117844 pbc="F F F"
Ce       0.00000000       0.00000000       0.00000000       0.00000000       0.00000000       1.56966567
Ce       0.00000000       0.00000000       2.76666667       0.00000000       0.00000000      -1.56966567
2
Properties=species:S:1:pos:R:3:forces:R:3 energy=-57.23489477680469 pbc="F F F"
Ce       0.00000000       0.00000000       0.00000000       0.00000000       0.00000000       1.72456253
Ce       0.00000000       0.00000000       2.82545455       0.00000000       0.00000000      -1.72456253
2
Properties=species:S:1:pos:R:3:forces:R:3 energy=-57.12823776318134 pbc="F F F"
Ce       0.00000000       0.00000000       0.00000000       0.00000000       0.00000000       1.90720975
Ce       0.00000000       0.00000000       2.88424242       0.00000000       0.00000000      -1.90720975
2
Properties=species:S:1:pos:R:3:forces:R:3 energy=-57.01086504794304 pbc="F F F"
Ce       0.00000000       0.00000000       0.00000000       0.00000000       0.00000000       2.07744980
Ce       0.00000000       0.00000000       2.94303030       0.00000000       0.00000000      -2.07744980
2
Properties=species:S:1:pos:R:3:forces:R:3 energy=-56.88590466225675 pbc="F F F"
Ce       0.00000000       0.00000000       0.00000000       0.00000000       0.00000000       2.14989281
Ce       0.00000000       0.00000000       3.00181818       0.00000000       0.00000000      -2.14989281
2
Properties=species:S:1:pos:R:3:forces:R:3 energy=-56.76152003609616 pbc="F F F"
Ce       0.00000000       0.00000000       0.00000000       0.00000000       0.00000000       2.04981804
Ce       0.00000000       0.00000000       3.06060606       0.00000000       0.00000000      -2.04981804
2
Properties=species:S:1:pos:R:3:forces:R:3 energy=-56.64840374411802 pbc="F F F"
Ce       0.00000000       0.00000000       0.00000000       0.00000000       0.00000000       1.77408934
Ce       0.00000000       0.00000000       3.11939394       0.00000000       0.00000000      -1.77408934
2
Properties=species:S:1:pos:R:3:forces:R:3 energy=-56.554646733088205 pbc="F F F"
Ce       0.00000000       0.00000000       0.00000000       0.00000000       0.00000000       1.41239738
Ce       0.00000000       0.00000000       3.17818182       0.00000000       0.00000000      -1.41239738
2
Properties=species:S:1:pos:R:3:forces:R:3 energy=-56.48130946271203 pbc="F F F"
Ce       0.00000000       0.00000000       0.00000000       0.00000000       0.00000000       1.10222208
Ce       0.00000000       0.00000000       3.23696970       0.00000000       0.00000000      -1.10222208
2
Properties=species:S:1:pos:R:3:forces:R:3 energy=-56.42185732885502 pbc="F F F"
Ce       0.00000000       0.00000000       0.00000000       0.00000000       0.00000000       0.95241505
Ce       0.00000000       0.00000000       3.29575758       0.00000000       0.00000000      -0.95241505
2
Properties=species:S:1:pos:R:3:forces:R:3 energy=-56.365506152648926 pbc="F F F"
Ce       0.00000000       0.00000000       0.00000000       0.00000000       0.00000000       0.99507141
Ce       0.00000000       0.00000000       3.35454545       0.00000000       0.00000000      -0.99507141
2
Properties=species:S:1:pos:R:3:forces:R:3 energy=-56.30185322297217 pbc="F F F"
Ce       0.00000000       0.00000000       0.00000000       0.00000000       0.00000000       1.19004619
Ce       0.00000000       0.00000000       3.41333333       0.00000000       0.00000000      -1.19004619
2
Properties=species:S:1:pos:R:3:forces:R:3 energy=-56.224058752781445 pbc="F F F"
Ce       0.00000000       0.00000000       0.00000000       0.00000000       0.00000000       1.46334314
Ce       0.00000000       0.00000000       3.47212121       0.00000000       0.00000000      -1.46334314
2
Properties=species:S:1:pos:R:3:forces:R:3 energy=-56.129605007035394 pbc="F F F"
Ce       0.00000000       0.00000000       0.00000000       0.00000000       0.00000000       1.74762678
Ce       0.00000000       0.00000000       3.53090909       0.00000000       0.00000000      -1.74762678
2
Properties=species:S:1:pos:R:3:forces:R:3 energy=-56.01914426174452 pbc="F F F"
Ce       0.00000000       0.00000000       0.00000000       0.00000000       0.00000000       2.00402260
Ce       0.00000000       0.00000000       3.58969697       0.00000000       0.00000000      -2.00402260
2
Properties=species:S:1:pos:R:3:forces:R:3 energy=-55.89477074492195 pbc="F F F"
Ce       0.00000000       0.00000000       0.00000000       0.00000000       0.00000000       2.22035384
Ce       0.00000000       0.00000000       3.64848485       0.00000000       0.00000000      -2.22035384
2
Properties=species:S:1:pos:R:3:forces:R:3 energy=-55.75889148975658 pbc="F F F"
Ce       0.00000000       0.00000000       0.00000000       0.00000000       0.00000000       2.39539504
Ce       0.00000000       0.00000000       3.70727273       0.00000000       0.00000000      -2.39539504
2
Properties=species:S:1:pos:R:3:forces:R:3 energy=-55.6140012643066 pbc="F F F"
Ce       0.00000000       0.00000000       0.00000000       0.00000000       0.00000000       2.52576137
Ce       0.00000000       0.00000000       3.76606061       0.00000000       0.00000000      -2.52576137
2
Properties=species:S:1:pos:R:3:forces:R:3 energy=-55.46292671212448 pbc="F F F"
Ce       0.00000000       0.00000000       0.00000000       0.00000000       0.00000000       2.60504460
Ce       0.00000000       0.00000000       3.82484848       0.00000000       0.00000000      -2.60504460
2
Properties=species:S:1:pos:R:3:forces:R:3 energy=-55.30877676317241 pbc="F F F"
Ce       0.00000000       0.00000000       0.00000000       0.00000000       0.00000000       2.63021851
Ce       0.00000000       0.00000000       3.88363636       0.00000000       0.00000000      -2.63021851
2
Properties=species:S:1:pos:R:3:forces:R:3 energy=-55.15469086419877 pbc="F F F"
Ce       0.00000000       0.00000000       0.00000000       0.00000000       0.00000000       2.60370040
Ce       0.00000000       0.00000000       3.94242424       0.00000000       0.00000000      -2.60370040
2
Properties=species:S:1:pos:R:3:forces:R:3 energy=-55.003594832965376 pbc="F F F"
Ce       0.00000000       0.00000000       0.00000000       0.00000000       0.00000000       2.52882385
Ce       0.00000000       0.00000000       4.00121212       0.00000000       0.00000000      -2.52882385
2
Properties=species:S:1:pos:R:3:forces:R:3 energy=-54.858273345019136 pbc="F F F"
Ce       0.00000000       0.00000000       0.00000000       0.00000000       0.00000000       2.40753794
Ce       0.00000000       0.00000000       4.06000000       0.00000000       0.00000000      -2.40753794
2
Properties=species:S:1:pos:R:3:forces:R:3 energy=-54.721343225663475 pbc="F F F"
Ce       0.00000000       0.00000000       0.00000000       0.00000000       0.00000000       2.24493361
Ce       0.00000000       0.00000000       4.11878788       0.00000000       0.00000000      -2.24493361
2
Properties=species:S:1:pos:R:3:forces:R:3 energy=-54.59491012760039 pbc="F F F"
Ce       0.00000000       0.00000000       0.00000000       0.00000000       0.00000000       2.05256033
Ce       0.00000000       0.00000000       4.17757576       0.00000000       0.00000000      -2.05256033
2
Properties=species:S:1:pos:R:3:forces:R:3 energy=-54.480301504893724 pbc="F F F"
Ce       0.00000000       0.00000000       0.00000000       0.00000000       0.00000000       1.84502459
Ce       0.00000000       0.00000000       4.23636364       0.00000000       0.00000000      -1.84502459
2
Properties=species:S:1:pos:R:3:forces:R:3 energy=-54.37803609261918 pbc="F F F"
Ce       0.00000000       0.00000000       0.00000000       0.00000000       0.00000000       1.63427782
Ce       0.00000000       0.00000000       4.29515152       0.00000000       0.00000000      -1.63427782
2
Properties=species:S:1:pos:R:3:forces:R:3 energy=-54.288064235563915 pbc="F F F"
Ce       0.00000000       0.00000000       0.00000000       0.00000000       0.00000000       1.42793262
Ce       0.00000000       0.00000000       4.35393939       0.00000000       0.00000000      -1.42793262
2
Properties=species:S:1:pos:R:3:forces:R:3 energy=-54.20996243422325 pbc="F F F"
Ce       0.00000000       0.00000000       0.00000000       0.00000000       0.00000000       1.23120272
Ce       0.00000000       0.00000000       4.41272727       0.00000000       0.00000000      -1.23120272
2
Properties=species:S:1:pos:R:3:forces:R:3 energy=-54.14300964468571 pbc="F F F"
Ce       0.00000000       0.00000000       0.00000000       0.00000000       0.00000000       1.04955542
Ce       0.00000000       0.00000000       4.47151515       0.00000000       0.00000000      -1.04955542
2
Properties=species:S:1:pos:R:3:forces:R:3 energy=-54.08613005104639 pbc="F F F"
Ce       0.00000000       0.00000000       0.00000000       0.00000000       0.00000000       0.88964510
Ce       0.00000000       0.00000000       4.53030303       0.00000000       0.00000000      -0.88964510
2
Properties=species:S:1:pos:R:3:forces:R:3 energy=-54.03784348107413 pbc="F F F"
Ce       0.00000000       0.00000000       0.00000000       0.00000000       0.00000000       0.75851429
Ce       0.00000000       0.00000000       4.58909091       0.00000000       0.00000000      -0.75851429
2
Properties=species:S:1:pos:R:3:forces:R:3 energy=-53.996280661436806 pbc="F F F"
Ce       0.00000000       0.00000000       0.00000000       0.00000000       0.00000000       0.66145569
Ce       0.00000000       0.00000000       4.64787879       0.00000000       0.00000000      -0.66145569
2
Properties=species:S:1:pos:R:3:forces:R:3 energy=-53.959381583939 pbc="F F F"
Ce       0.00000000       0.00000000       0.00000000       0.00000000       0.00000000       0.59948981
Ce       0.00000000       0.00000000       4.70666667       0.00000000       0.00000000      -0.59948981
2
Properties=species:S:1:pos:R:3:forces:R:3 energy=-53.92519686621002 pbc="F F F"
Ce       0.00000000       0.00000000       0.00000000       0.00000000       0.00000000       0.56770349
Ce       0.00000000       0.00000000       4.76545455       0.00000000       0.00000000      -0.56770349
2
Properties=species:S:1:pos:R:3:forces:R:3 energy=-53.89224251973756 pbc="F F F"
Ce       0.00000000       0.00000000       0.00000000       0.00000000       0.00000000       0.55569464
Ce       0.00000000       0.00000000       4.82424242       0.00000000       0.00000000      -0.55569464
2
Properties=species:S:1:pos:R:3:forces:R:3 energy=-53.85972883170356 pbc="F F F"
Ce       0.00000000       0.00000000       0.00000000       0.00000000       0.00000000       0.55058575
Ce       0.00000000       0.00000000       4.88303030       0.00000000       0.00000000      -0.55058575
2
Properties=species:S:1:pos:R:3:forces:R:3 energy=-53.82759088097854 pbc="F F F"
Ce       0.00000000       0.00000000       0.00000000       0.00000000       0.00000000       0.54132712
Ce       0.00000000       0.00000000       4.94181818       0.00000000       0.00000000      -0.54132712
2
Properties=species:S:1:pos:R:3:forces:R:3 energy=-53.7962787345236 pbc="F F F"
Ce       0.00000000       0.00000000       0.00000000       0.00000000       0.00000000       0.52224946
Ce       0.00000000       0.00000000       5.00060606       0.00000000       0.00000000      -0.52224946
2
Properties=species:S:1:pos:R:3:forces:R:3 energy=-53.76637216059081 pbc="F F F"
Ce       0.00000000       0.00000000       0.00000000       0.00000000       0.00000000       0.49393162
Ce       0.00000000       0.00000000       5.05939394       0.00000000       0.00000000      -0.49393162
2
Properties=species:S:1:pos:R:3:forces:R:3 energy=-53.7382830835244 pbc="F F F"
Ce       0.00000000       0.00000000       0.00000000       0.00000000       0.00000000       0.46158701
Ce       0.00000000       0.00000000       5.11818182       0.00000000       0.00000000      -0.46158701
2
Properties=species:S:1:pos:R:3:forces:R:3 energy=-53.71204577461918 pbc="F F F"
Ce       0.00000000       0.00000000       0.00000000       0.00000000       0.00000000       0.43196836
Ce       0.00000000       0.00000000       5.17696970       0.00000000       0.00000000      -0.43196836
2
Properties=species:S:1:pos:R:3:forces:R:3 energy=-53.68735118954365 pbc="F F F"
Ce       0.00000000       0.00000000       0.00000000       0.00000000       0.00000000       0.40953580
Ce       0.00000000       0.00000000       5.23575758       0.00000000       0.00000000      -0.40953580
2
Properties=species:S:1:pos:R:3:forces:R:3 energy=-53.663787288724066 pbc="F F F"
Ce       0.00000000       0.00000000       0.00000000       0.00000000       0.00000000       0.39243871
Ce       0.00000000       0.00000000       5.29454545       0.00000000       0.00000000      -0.39243871
2
Properties=species:S:1:pos:R:3:forces:R:3 energy=-53.64123577179971 pbc="F F F"
Ce       0.00000000       0.00000000       0.00000000       0.00000000       0.00000000       0.37419748
Ce       0.00000000       0.00000000       5.35333333       0.00000000       0.00000000      -0.37419748
2
Properties=species:S:1:pos:R:3:forces:R:3 energy=-53.61973093342807 pbc="F F F"
Ce       0.00000000       0.00000000       0.00000000       0.00000000       0.00000000       0.36009476
Ce       0.00000000       0.00000000       5.41212121       0.00000000       0.00000000      -0.36009476
2
Properties=species:S:1:pos:R:3:forces:R:3 energy=-53.598315250145426 pbc="F F F"
Ce       0.00000000       0.00000000       0.00000000       0.00000000       0.00000000       0.37463135
Ce       0.00000000       0.00000000       5.47090909       0.00000000       0.00000000      -0.37463135
2
Properties=species:S:1:pos:R:3:forces:R:3 energy=-53.57521486436056 pbc="F F F"
Ce       0.00000000       0.00000000       0.00000000       0.00000000       0.00000000       0.41052207
Ce       0.00000000       0.00000000       5.52969697       0.00000000       0.00000000      -0.41052207
2
Properties=species:S:1:pos:R:3:forces:R:3 energy=-53.550738752296795 pbc="F F F"
Ce       0.00000000       0.00000000       0.00000000       0.00000000       0.00000000       0.41352352
Ce       0.00000000       0.00000000       5.58848485       0.00000000       0.00000000      -0.41352352
2
Properties=species:S:1:pos:R:3:forces:R:3 energy=-53.52737790255706 pbc="F F F"
Ce       0.00000000       0.00000000       0.00000000       0.00000000       0.00000000       0.38031024
Ce       0.00000000       0.00000000       5.64727273       0.00000000       0.00000000      -0.38031024
2
Properties=species:S:1:pos:R:3:forces:R:3 energy=-53.50534212665881 pbc="F F F"
Ce       0.00000000       0.00000000       0.00000000       0.00000000       0.00000000       0.38093629
Ce       0.00000000       0.00000000       5.70606061       0.00000000       0.00000000      -0.38093629
2
Properties=species:S:1:pos:R:3:forces:R:3 energy=-53.48123635908278 pbc="F F F"
Ce       0.00000000       0.00000000       0.00000000       0.00000000       0.00000000       0.44071957
Ce       0.00000000       0.00000000       5.76484848       0.00000000       0.00000000      -0.44071957
2
Properties=species:S:1:pos:R:3:forces:R:3 energy=-53.454850815634 pbc="F F F"
Ce       0.00000000       0.00000000       0.00000000       0.00000000       0.00000000       0.43315154
Ce       0.00000000       0.00000000       5.82363636       0.00000000       0.00000000      -0.43315154
2
Properties=species:S:1:pos:R:3:forces:R:3 energy=-53.43356315527427 pbc="F F F"
Ce       0.00000000       0.00000000       0.00000000       0.00000000       0.00000000       0.27394205
Ce       0.00000000       0.00000000       5.88242424       0.00000000       0.00000000      -0.27394205
2
Properties=species:S:1:pos:R:3:forces:R:3 energy=-53.423316726236614 pbc="F F F"
Ce       0.00000000       0.00000000       0.00000000       0.00000000       0.00000000       0.08170525
Ce       0.00000000       0.00000000       5.94121212       0.00000000       0.00000000      -0.08170525
2
Properties=species:S:1:pos:R:3:forces:R:3 energy=-53.42166255227318 pbc="F F F"
Ce       0.00000000       0.00000000       0.00000000       0.00000000       0.00000000       0.00129271
Ce       0.00000000       0.00000000       6.00000000       0.00000000       0.00000000      -0.00129271
