2
Properties=species:S:1:pos:R:3:forces:R:3 energy=13575.555626514148 pbc="F F F"
Cl       0.00000000       0.00000000       0.00000000       0.00000000       0.00000000  -35331.66406250
Cl       0.00000000       0.00000000       0.18000000       0.00000000       0.00000000   35331.66406250
2
Properties=species:S:1:pos:R:3:forces:R:3 energy=11699.631798389148 pbc="F F F"
Cl       0.00000000       0.00000000       0.00000000       0.00000000       0.00000000  -32111.59375000
Cl       0.00000000       0.00000000       0.23878788       0.00000000       0.00000000   32111.59375000
2
Properties=species:S:1:pos:R:3:forces:R:3 energy=9458.95406401494 pbc="F F F"
Cl       0.00000000       0.00000000       0.00000000       0.00000000       0.00000000  -45331.65234375
Cl       0.00000000       0.00000000       0.29757576       0.00000000       0.00000000   45331.65234375
2
Properties=species:S:1:pos:R:3:forces:R:3 energy=6358.68013823369 pbc="F F F"
Cl       0.00000000       0.00000000       0.00000000       0.00000000       0.00000000  -58814.55859375
Cl       0.00000000       0.00000000       0.35636364       0.00000000       0.00000000   58814.55859375
2
Properties=species:S:1:pos:R:3:forces:R:3 energy=3002.419396047774 pbc="F F F"
Cl       0.00000000       0.00000000       0.00000000       0.00000000       0.00000000  -52590.83593750
Cl       0.00000000       0.00000000       0.41515152       0.00000000       0.00000000   52590.83593750
2
Properties=species:S:1:pos:R:3:forces:R:3 energy=802.0263906790562 pbc="F F F"
Cl       0.00000000       0.00000000       0.00000000       0.00000000       0.00000000  -13781.59863281
Cl       0.00000000       0.00000000       0.47393939       0.00000000       0.00000000   13781.59863281
2
Properties=species:S:1:pos:R:3:forces:R:3 energy=47.61186279153357 pbc="F F F"
Cl       0.00000000       0.00000000       0.00000000       0.00000000       0.00000000  -11619.60449219
Cl       0.00000000       0.00000000       0.53272727       0.00000000       0.00000000   11619.60449219
2
Properties=species:S:1:pos:R:3:forces:R:3 energy=-183.94200835533204 pbc="F F F"
Cl       0.00000000       0.00000000       0.00000000       0.00000000       0.00000000   -1298.13476562
Cl       0.00000000       0.00000000       0.59151515       0.00000000       0.00000000    1298.13476562
2
Properties=species:S:1:pos:R:3:forces:R:3 energy=-204.16988309693622 pbc="F F F"
Cl       0.00000000       0.00000000       0.00000000       0.00000000       0.00000000     500.87768555
Cl       0.00000000       0.00000000       0.65030303       0.00000000       0.00000000    -500.87768555
2
Properties=species:S:1:pos:R:3:forces:R:3 energy=-143.90924769720098 pbc="F F F"
Cl       0.00000000       0.00000000       0.00000000       0.00000000       0.00000000     944.53009033
Cl       0.00000000       0.00000000       0.70909091       0.00000000       0.00000000    -944.53009033
2
Properties=species:S:1:pos:R:3:forces:R:3 energy=-86.67462852172993 pbc="F F F"
Cl       0.00000000       0.00000000       0.00000000       0.00000000       0.00000000     932.79907227
Cl       0.00000000       0.00000000       0.76787879       0.00000000       0.00000000    -932.79907227
2
Properties=species:S:1:pos:R:3:forces:R:3 energy=-37.918612693456886 pbc="F F F"
Cl       0.00000000       0.00000000       0.00000000       0.00000000       0.00000000     700.74322510
Cl       0.00000000       0.00000000       0.82666667       0.00000000       0.00000000    -700.74322510
2
Properties=species:S:1:pos:R:3:forces:R:3 energy=-5.287059448323749 pbc="F F F"
Cl       0.00000000       0.00000000       0.00000000       0.00000000       0.00000000     419.00897217
Cl       0.00000000       0.00000000       0.88545455       0.00000000       0.00000000    -419.00897217
2
Properties=species:S:1:pos:R:3:forces:R:3 energy=12.632092436036062 pbc="F F F"
Cl       0.00000000       0.00000000       0.00000000       0.00000000       0.00000000     194.86717224
Cl       0.00000000       0.00000000       0.94424242       0.00000000       0.00000000    -194.86717224
2
Properties=species:S:1:pos:R:3:forces:R:3 energy=18.329739669354844 pbc="F F F"
Cl       0.00000000       0.00000000       0.00000000       0.00000000       0.00000000      13.46931267
Cl       0.00000000       0.00000000       1.00303030       0.00000000       0.00000000     -13.46931267
2
Properties=species:S:1:pos:R:3:forces:R:3 energy=16.501883792413576 pbc="F F F"
Cl       0.00000000       0.00000000       0.00000000       0.00000000       0.00000000     -56.50553513
Cl       0.00000000       0.00000000       1.06181818       0.00000000       0.00000000      56.50553513
2
Properties=species:S:1:pos:R:3:forces:R:3 energy=13.120242650772296 pbc="F F F"
Cl       0.00000000       0.00000000       0.00000000       0.00000000       0.00000000     -60.51324844
Cl       0.00000000       0.00000000       1.12060606       0.00000000       0.00000000      60.51324844
2
Properties=species:S:1:pos:R:3:forces:R:3 energy=8.472463506792609 pbc="F F F"
Cl       0.00000000       0.00000000       0.00000000       0.00000000       0.00000000     -91.44779968
Cl       0.00000000       0.00000000       1.17939394       0.00000000       0.00000000      91.44779968
2
Properties=species:S:1:pos:R:3:forces:R:3 energy=3.481746985989297 pbc="F F F"
Cl       0.00000000       0.00000000       0.00000000       0.00000000       0.00000000     -73.31983948
Cl       0.00000000       0.00000000       1.23818182       0.00000000       0.00000000      73.31983948
2
Properties=species:S:1:pos:R:3:forces:R:3 energy=-0.1728574007483812 pbc="F F F"
Cl       0.00000000       0.00000000       0.00000000       0.00000000       0.00000000     -53.64230347
Cl       0.00000000       0.00000000       1.29696970       0.00000000       0.00000000      53.64230347
2
Properties=species:S:1:pos:R:3:forces:R:3 energy=-3.0389131809342946 pbc="F F F"
Cl       0.00000000       0.00000000       0.00000000       0.00000000       0.00000000     -44.44636536
Cl       0.00000000       0.00000000       1.35575758       0.00000000       0.00000000      44.44636536
2
Properties=species:S:1:pos:R:3:forces:R:3 energy=-5.3977070456870475 pbc="F F F"
Cl       0.00000000       0.00000000       0.00000000       0.00000000       0.00000000     -35.67100525
Cl       0.00000000       0.00000000       1.41454545       0.00000000       0.00000000      35.67100525
2
Properties=species:S:1:pos:R:3:forces:R:3 energy=-7.2376336997801145 pbc="F F F"
Cl       0.00000000       0.00000000       0.00000000       0.00000000       0.00000000     -27.14012527
Cl       0.00000000       0.00000000       1.47333333       0.00000000       0.00000000      27.14012527
2
Properties=species:S:1:pos:R:3:forces:R:3 energy=-8.625359713039744 pbc="F F F"
Cl       0.00000000       0.00000000       0.00000000       0.00000000       0.00000000     -20.41594696
Cl       0.00000000       0.00000000       1.53212121       0.00000000       0.00000000      20.41594696
2
Properties=species:S:1:pos:R:3:forces:R:3 energy=-9.67464313144245 pbc="F F F"
Cl       0.00000000       0.00000000       0.00000000       0.00000000       0.00000000     -15.53658581
Cl       0.00000000       0.00000000       1.59090909       0.00000000       0.00000000      15.53658581
2
Properties=species:S:1:pos:R:3:forces:R:3 energy=-10.474809337855799 pbc="F F F"
Cl       0.00000000       0.00000000       0.00000000       0.00000000       0.00000000     -11.82483292
Cl       0.00000000       0.00000000       1.64969697       0.00000000       0.00000000      11.82483292
2
Properties=species:S:1:pos:R:3:forces:R:3 energy=-11.077276586037996 pbc="F F F"
Cl       0.00000000       0.00000000       0.00000000       0.00000000       0.00000000      -8.75568867
Cl       0.00000000       0.00000000       1.70848485       0.00000000       0.00000000       8.75568867
2
Properties=species:S:1:pos:R:3:forces:R:3 energy=-11.51355231340954 pbc="F F F"
Cl       0.00000000       0.00000000       0.00000000       0.00000000       0.00000000      -6.16607523
Cl       0.00000000       0.00000000       1.76727273       0.00000000       0.00000000       6.16607523
2
Properties=species:S:1:pos:R:3:forces:R:3 energy=-11.811776527044056 pbc="F F F"
Cl       0.00000000       0.00000000       0.00000000       0.00000000       0.00000000      -4.05905724
Cl       0.00000000       0.00000000       1.82606061       0.00000000       0.00000000       4.05905724
2
Properties=species:S:1:pos:R:3:forces:R:3 energy=-11.999261439956788 pbc="F F F"
Cl       0.00000000       0.00000000       0.00000000       0.00000000       0.00000000      -2.38089204
Cl       0.00000000       0.00000000       1.88484848       0.00000000       0.00000000       2.38089204
2
Properties=species:S:1:pos:R:3:forces:R:3 energy=-12.097616286415235 pbc="F F F"
Cl       0.00000000       0.00000000       0.00000000       0.00000000       0.00000000      -1.00552404
Cl       0.00000000       0.00000000       1.94363636       0.00000000       0.00000000       1.00552404
2
Properties=species:S:1:pos:R:3:forces:R:3 energy=-12.12160005728019 pbc="F F F"
Cl       0.00000000       0.00000000       0.00000000       0.00000000       0.00000000       0.15612315
Cl       0.00000000       0.00000000       2.00242424       0.00000000       0.00000000      -0.15612315
2
Properties=species:S:1:pos:R:3:forces:R:3 energy=-12.083549412232685 pbc="F F F"
Cl       0.00000000       0.00000000       0.00000000       0.00000000       0.00000000       1.09702122
Cl       0.00000000       0.00000000       2.06121212       0.00000000       0.00000000      -1.09702122
2
Properties=species:S:1:pos:R:3:forces:R:3 energy=-11.998097459499615 pbc="F F F"
Cl       0.00000000       0.00000000       0.00000000       0.00000000       0.00000000       1.75929534
Cl       0.00000000       0.00000000       2.12000000       0.00000000       0.00000000      -1.75929534
2
Properties=species:S:1:pos:R:3:forces:R:3 energy=-11.882860421952394 pbc="F F F"
Cl       0.00000000       0.00000000       0.00000000       0.00000000       0.00000000       2.10915732
Cl       0.00000000       0.00000000       2.17878788       0.00000000       0.00000000      -2.10915732
2
Properties=species:S:1:pos:R:3:forces:R:3 energy=-11.75589419958443 pbc="F F F"
Cl       0.00000000       0.00000000       0.00000000       0.00000000       0.00000000       2.16517758
Cl       0.00000000       0.00000000       2.23757576       0.00000000       0.00000000      -2.16517758
2
Properties=species:S:1:pos:R:3:forces:R:3 energy=-11.632979324464628 pbc="F F F"
Cl       0.00000000       0.00000000       0.00000000       0.00000000       0.00000000       1.98220241
Cl       0.00000000       0.00000000       2.29636364       0.00000000       0.00000000      -1.98220241
2
Properties=species:S:1:pos:R:3:forces:R:3 energy=-11.526052258353745 pbc="F F F"
Cl       0.00000000       0.00000000       0.00000000       0.00000000       0.00000000       1.63690293
Cl       0.00000000       0.00000000       2.35515152       0.00000000       0.00000000      -1.63690293
2
Properties=species:S:1:pos:R:3:forces:R:3 energy=-11.441146642690194 pbc="F F F"
Cl       0.00000000       0.00000000       0.00000000       0.00000000       0.00000000       1.26262808
Cl       0.00000000       0.00000000       2.41393939       0.00000000       0.00000000      -1.26262808
2
Properties=species:S:1:pos:R:3:forces:R:3 energy=-11.374231786199156 pbc="F F F"
Cl       0.00000000       0.00000000       0.00000000       0.00000000       0.00000000       1.05721045
Cl       0.00000000       0.00000000       2.47272727       0.00000000       0.00000000      -1.05721045
2
Properties=species:S:1:pos:R:3:forces:R:3 energy=-11.311141220890262 pbc="F F F"
Cl       0.00000000       0.00000000       0.00000000       0.00000000       0.00000000       1.13512576
Cl       0.00000000       0.00000000       2.53151515       0.00000000       0.00000000      -1.13512576
2
Properties=species:S:1:pos:R:3:forces:R:3 energy=-11.236674903466358 pbc="F F F"
Cl       0.00000000       0.00000000       0.00000000       0.00000000       0.00000000       1.42005241
Cl       0.00000000       0.00000000       2.59030303       0.00000000       0.00000000      -1.42005241
2
Properties=species:S:1:pos:R:3:forces:R:3 energy=-11.142824820876713 pbc="F F F"
Cl       0.00000000       0.00000000       0.00000000       0.00000000       0.00000000       1.77781570
Cl       0.00000000       0.00000000       2.64909091       0.00000000       0.00000000      -1.77781570
2
Properties=species:S:1:pos:R:3:forces:R:3 energy=-11.027307430471918 pbc="F F F"
Cl       0.00000000       0.00000000       0.00000000       0.00000000       0.00000000       2.15297341
Cl       0.00000000       0.00000000       2.70787879       0.00000000       0.00000000      -2.15297341
2
Properties=species:S:1:pos:R:3:forces:R:3 energy=-10.890289555572553 pbc="F F F"
Cl       0.00000000       0.00000000       0.00000000       0.00000000       0.00000000       2.49392700
Cl       0.00000000       0.00000000       2.76666667       0.00000000       0.00000000      -2.49392700
2
Properties=species:S:1:pos:R:3:forces:R:3 energy=-10.737201460501831 pbc="F F F"
Cl       0.00000000       0.00000000       0.00000000       0.00000000       0.00000000       2.67709994
Cl       0.00000000       0.00000000       2.82545455       0.00000000       0.00000000      -2.67709994
2
Properties=species:S:1:pos:R:3:forces:R:3 energy=-10.580408502757644 pbc="F F F"
Cl       0.00000000       0.00000000       0.00000000       0.00000000       0.00000000       2.61654115
Cl       0.00000000       0.00000000       2.88424242       0.00000000       0.00000000      -2.61654115
2
Properties=species:S:1:pos:R:3:forces:R:3 energy=-10.433418200336101 pbc="F F F"
Cl       0.00000000       0.00000000       0.00000000       0.00000000       0.00000000       2.36151743
Cl       0.00000000       0.00000000       2.94303030       0.00000000       0.00000000      -2.36151743
2
Properties=species:S:1:pos:R:3:forces:R:3 energy=-10.30416312338242 pbc="F F F"
Cl       0.00000000       0.00000000       0.00000000       0.00000000       0.00000000       2.03313375
Cl       0.00000000       0.00000000       3.00181818       0.00000000       0.00000000      -2.03313375
2
Properties=species:S:1:pos:R:3:forces:R:3 energy=-10.193944460635015 pbc="F F F"
Cl       0.00000000       0.00000000       0.00000000       0.00000000       0.00000000       1.72442985
Cl       0.00000000       0.00000000       3.06060606       0.00000000       0.00000000      -1.72442985
2
Properties=species:S:1:pos:R:3:forces:R:3 energy=-10.10031517883265 pbc="F F F"
Cl       0.00000000       0.00000000       0.00000000       0.00000000       0.00000000       1.47049487
Cl       0.00000000       0.00000000       3.11939394       0.00000000       0.00000000      -1.47049487
2
Properties=species:S:1:pos:R:3:forces:R:3 energy=-10.020021298442153 pbc="F F F"
Cl       0.00000000       0.00000000       0.00000000       0.00000000       0.00000000       1.26858819
Cl       0.00000000       0.00000000       3.17818182       0.00000000       0.00000000      -1.26858819
2
Properties=species:S:1:pos:R:3:forces:R:3 energy=-9.950442011172282 pbc="F F F"
Cl       0.00000000       0.00000000       0.00000000       0.00000000       0.00000000       1.10334158
Cl       0.00000000       0.00000000       3.23696970       0.00000000       0.00000000      -1.10334158
2
Properties=species:S:1:pos:R:3:forces:R:3 energy=-9.889861517147672 pbc="F F F"
Cl       0.00000000       0.00000000       0.00000000       0.00000000       0.00000000       0.96049076
Cl       0.00000000       0.00000000       3.29575758       0.00000000       0.00000000      -0.96049076
2
Properties=species:S:1:pos:R:3:forces:R:3 energy=-9.837254467194567 pbc="F F F"
Cl       0.00000000       0.00000000       0.00000000       0.00000000       0.00000000       0.83093613
Cl       0.00000000       0.00000000       3.35454545       0.00000000       0.00000000      -0.83093613
2
Properties=species:S:1:pos:R:3:forces:R:3 energy=-9.791989387551444 pbc="F F F"
Cl       0.00000000       0.00000000       0.00000000       0.00000000       0.00000000       0.71035099
Cl       0.00000000       0.00000000       3.41333333       0.00000000       0.00000000      -0.71035099
2
Properties=species:S:1:pos:R:3:forces:R:3 energy=-9.753582642190796 pbc="F F F"
Cl       0.00000000       0.00000000       0.00000000       0.00000000       0.00000000       0.59761077
Cl       0.00000000       0.00000000       3.47212121       0.00000000       0.00000000      -0.59761077
2
Properties=species:S:1:pos:R:3:forces:R:3 energy=-9.721558246654409 pbc="F F F"
Cl       0.00000000       0.00000000       0.00000000       0.00000000       0.00000000       0.49340332
Cl       0.00000000       0.00000000       3.53090909       0.00000000       0.00000000      -0.49340332
2
Properties=species:S:1:pos:R:3:forces:R:3 energy=-9.695374444634453 pbc="F F F"
Cl       0.00000000       0.00000000       0.00000000       0.00000000       0.00000000       0.39917865
Cl       0.00000000       0.00000000       3.58969697       0.00000000       0.00000000      -0.39917865
2
Properties=species:S:1:pos:R:3:forces:R:3 energy=-9.674398915213105 pbc="F F F"
Cl       0.00000000       0.00000000       0.00000000       0.00000000       0.00000000       0.31641406
Cl       0.00000000       0.00000000       3.64848485       0.00000000       0.00000000      -0.31641406
2
Properties=species:S:1:pos:R:3:forces:R:3 energy=-9.657926901386077 pbc="F F F"
Cl       0.00000000       0.00000000       0.00000000       0.00000000       0.00000000       0.24611430
Cl       0.00000000       0.00000000       3.70727273       0.00000000       0.00000000      -0.24611430
2
Properties=species:S:1:pos:R:3:forces:R:3 energy=-9.645212680127115 pbc="F F F"
Cl       0.00000000       0.00000000       0.00000000       0.00000000       0.00000000       0.18850490
Cl       0.00000000       0.00000000       3.76606061       0.00000000       0.00000000      -0.18850490
2
Properties=species:S:1:pos:R:3:forces:R:3 energy=-9.635526795518278 pbc="F F F"
Cl       0.00000000       0.00000000       0.00000000       0.00000000       0.00000000       0.14294288
Cl       0.00000000       0.00000000       3.82484848       0.00000000       0.00000000      -0.14294288
2
Properties=species:S:1:pos:R:3:forces:R:3 energy=-9.628198009728454 pbc="F F F"
Cl       0.00000000       0.00000000       0.00000000       0.00000000       0.00000000       0.10797827
Cl       0.00000000       0.00000000       3.88363636       0.00000000       0.00000000      -0.10797827
2
Properties=species:S:1:pos:R:3:forces:R:3 energy=-9.622662909520955 pbc="F F F"
Cl       0.00000000       0.00000000       0.00000000       0.00000000       0.00000000       0.08158158
Cl       0.00000000       0.00000000       3.94242424       0.00000000       0.00000000      -0.08158158
2
Properties=species:S:1:pos:R:3:forces:R:3 energy=-9.618484017749987 pbc="F F F"
Cl       0.00000000       0.00000000       0.00000000       0.00000000       0.00000000       0.06146327
Cl       0.00000000       0.00000000       4.00121212       0.00000000       0.00000000      -0.06146327
2
Properties=species:S:1:pos:R:3:forces:R:3 energy=-9.615356468684897 pbc="F F F"
Cl       0.00000000       0.00000000       0.00000000       0.00000000       0.00000000       0.04542597
Cl       0.00000000       0.00000000       4.06000000       0.00000000       0.00000000      -0.04542597
2
Properties=species:S:1:pos:R:3:forces:R:3 energy=-9.613097521948434 pbc="F F F"
Cl       0.00000000       0.00000000       0.00000000       0.00000000       0.00000000       0.03169078
Cl       0.00000000       0.00000000       4.11878788       0.00000000       0.00000000      -0.03169078
2
Properties=species:S:1:pos:R:3:forces:R:3 energy=-9.611608409604438 pbc="F F F"
Cl       0.00000000       0.00000000       0.00000000       0.00000000       0.00000000       0.01910931
Cl       0.00000000       0.00000000       4.17757576       0.00000000       0.00000000      -0.01910931
2
Properties=species:S:1:pos:R:3:forces:R:3 energy=-9.610838081882635 pbc="F F F"
Cl       0.00000000       0.00000000       0.00000000       0.00000000       0.00000000       0.00721387
Cl       0.00000000       0.00000000       4.23636364       0.00000000       0.00000000      -0.00721387
2
Properties=species:S:1:pos:R:3:forces:R:3 energy=-9.610745070897382 pbc="F F F"
Cl       0.00000000       0.00000000       0.00000000       0.00000000       0.00000000      -0.00391028
Cl       0.00000000       0.00000000       4.29515152       0.00000000       0.00000000       0.00391028
2
Properties=species:S:1:pos:R:3:forces:R:3 energy=-9.611274587812892 pbc="F F F"
Cl       0.00000000       0.00000000       0.00000000       0.00000000       0.00000000      -0.01385977
Cl       0.00000000       0.00000000       4.35393939       0.00000000       0.00000000       0.01385977
2
Properties=species:S:1:pos:R:3:forces:R:3 energy=-9.612343250986907 pbc="F F F"
Cl       0.00000000       0.00000000       0.00000000       0.00000000       0.00000000      -0.02218684
Cl       0.00000000       0.00000000       4.41272727       0.00000000       0.00000000       0.02218684
2
Properties=species:S:1:pos:R:3:forces:R:3 energy=-9.61384575931505 pbc="F F F"
Cl       0.00000000       0.00000000       0.00000000       0.00000000       0.00000000      -0.02857924
Cl       0.00000000       0.00000000       4.47151515       0.00000000       0.00000000       0.02857924
2
Properties=species:S:1:pos:R:3:forces:R:3 energy=-9.615663464608268 pbc="F F F"
Cl       0.00000000       0.00000000       0.00000000       0.00000000       0.00000000      -0.03293765
Cl       0.00000000       0.00000000       4.53030303       0.00000000       0.00000000       0.03293765
2
Properties=species:S:1:pos:R:3:forces:R:3 energy=-9.617679624838207 pbc="F F F"
Cl       0.00000000       0.00000000       0.00000000       0.00000000       0.00000000      -0.03535441
Cl       0.00000000       0.00000000       4.58909091       0.00000000       0.00000000       0.03535441
2
Properties=species:S:1:pos:R:3:forces:R:3 energy=-9.61978606045452 pbc="F F F"
Cl       0.00000000       0.00000000       0.00000000       0.00000000       0.00000000      -0.03604430
Cl       0.00000000       0.00000000       4.64787879       0.00000000       0.00000000       0.03604430
2
Properties=species:S:1:pos:R:3:forces:R:3 energy=-9.621888880390532 pbc="F F F"
Cl       0.00000000       0.00000000       0.00000000       0.00000000       0.00000000      -0.03527466
Cl       0.00000000       0.00000000       4.70666667       0.00000000       0.00000000       0.03527466
2
Properties=species:S:1:pos:R:3:forces:R:3 energy=-9.623910379116468 pbc="F F F"
Cl       0.00000000       0.00000000       0.00000000       0.00000000       0.00000000      -0.03331013
Cl       0.00000000       0.00000000       4.76545455       0.00000000       0.00000000       0.03331013
2
Properties=species:S:1:pos:R:3:forces:R:3 energy=-9.62578711602555 pbc="F F F"
Cl       0.00000000       0.00000000       0.00000000       0.00000000       0.00000000      -0.03038041
Cl       0.00000000       0.00000000       4.82424242       0.00000000       0.00000000       0.03038041
2
Properties=species:S:1:pos:R:3:forces:R:3 energy=-9.627466108854284 pbc="F F F"
Cl       0.00000000       0.00000000       0.00000000       0.00000000       0.00000000      -0.02663724
Cl       0.00000000       0.00000000       4.88303030       0.00000000       0.00000000       0.02663724
2
Properties=species:S:1:pos:R:3:forces:R:3 energy=-9.628903860605227 pbc="F F F"
Cl       0.00000000       0.00000000       0.00000000       0.00000000       0.00000000      -0.02212119
Cl       0.00000000       0.00000000       4.94181818       0.00000000       0.00000000       0.02212119
2
Properties=species:S:1:pos:R:3:forces:R:3 energy=-9.630051110459387 pbc="F F F"
Cl       0.00000000       0.00000000       0.00000000       0.00000000       0.00000000      -0.01676509
Cl       0.00000000       0.00000000       5.00060606       0.00000000       0.00000000       0.01676509
2
Properties=species:S:1:pos:R:3:forces:R:3 energy=-9.630855691433352 pbc="F F F"
Cl       0.00000000       0.00000000       0.00000000       0.00000000       0.00000000      -0.01045692
Cl       0.00000000       0.00000000       5.05939394       0.00000000       0.00000000       0.01045692
2
Properties=species:S:1:pos:R:3:forces:R:3 energy=-9.631261572151239 pbc="F F F"
Cl       0.00000000       0.00000000       0.00000000       0.00000000       0.00000000      -0.00318672
Cl       0.00000000       0.00000000       5.11818182       0.00000000       0.00000000       0.00318672
2
Properties=species:S:1:pos:R:3:forces:R:3 energy=-9.631216491188942 pbc="F F F"
Cl       0.00000000       0.00000000       0.00000000       0.00000000       0.00000000       0.00477859
Cl       0.00000000       0.00000000       5.17696970       0.00000000       0.00000000      -0.00477859
2
Properties=species:S:1:pos:R:3:forces:R:3 energy=-9.630698659757002 pbc="F F F"
Cl       0.00000000       0.00000000       0.00000000       0.00000000       0.00000000       0.01279724
Cl       0.00000000       0.00000000       5.23575758       0.00000000       0.00000000      -0.01279724
2
Properties=species:S:1:pos:R:3:forces:R:3 energy=-9.629730118288748 pbc="F F F"
Cl       0.00000000       0.00000000       0.00000000       0.00000000       0.00000000       0.01989127
Cl       0.00000000       0.00000000       5.29454545       0.00000000       0.00000000      -0.01989127
2
Properties=species:S:1:pos:R:3:forces:R:3 energy=-9.628399626603782 pbc="F F F"
Cl       0.00000000       0.00000000       0.00000000       0.00000000       0.00000000       0.02494575
Cl       0.00000000       0.00000000       5.35333333       0.00000000       0.00000000      -0.02494575
2
Properties=species:S:1:pos:R:3:forces:R:3 energy=-9.626852174480444 pbc="F F F"
Cl       0.00000000       0.00000000       0.00000000       0.00000000       0.00000000       0.02725183
Cl       0.00000000       0.00000000       5.41212121       0.00000000       0.00000000      -0.02725183
2
Properties=species:S:1:pos:R:3:forces:R:3 energy=-9.625233674683109 pbc="F F F"
Cl       0.00000000       0.00000000       0.00000000       0.00000000       0.00000000       0.02764961
Cl       0.00000000       0.00000000       5.47090909       0.00000000       0.00000000      -0.02764961
2
Properties=species:S:1:pos:R:3:forces:R:3 energy=-9.623603228686873 pbc="F F F"
Cl       0.00000000       0.00000000       0.00000000       0.00000000       0.00000000       0.02776505
Cl       0.00000000       0.00000000       5.52969697       0.00000000       0.00000000      -0.02776505
2
Properties=species:S:1:pos:R:3:forces:R:3 energy=-9.622015143460716 pbc="F F F"
Cl       0.00000000       0.00000000       0.00000000       0.00000000       0.00000000       0.02551859
Cl       0.00000000       0.00000000       5.58848485       0.00000000       0.00000000      -0.02551859
2
Properties=species:S:1:pos:R:3:forces:R:3 energy=-9.620706813227393 pbc="F F F"
Cl       0.00000000       0.00000000       0.00000000       0.00000000       0.00000000       0.01831488
Cl       0.00000000       0.00000000       5.64727273       0.00000000       0.00000000      -0.01831488
2
Properties=species:S:1:pos:R:3:forces:R:3 energy=-9.619866021841288 pbc="F F F"
Cl       0.00000000       0.00000000       0.00000000       0.00000000       0.00000000       0.01099503
Cl       0.00000000       0.00000000       5.70606061       0.00000000       0.00000000      -0.01099503
2
Properties=species:S:1:pos:R:3:forces:R:3 energy=-9.619272366294162 pbc="F F F"
Cl       0.00000000       0.00000000       0.00000000       0.00000000       0.00000000       0.01040521
Cl       0.00000000       0.00000000       5.76484848       0.00000000       0.00000000      -0.01040521
2
Properties=species:S:1:pos:R:3:forces:R:3 energy=-9.618584319614005 pbc="F F F"
Cl       0.00000000       0.00000000       0.00000000       0.00000000       0.00000000       0.01262600
Cl       0.00000000       0.00000000       5.82363636       0.00000000       0.00000000      -0.01262600
2
Properties=species:S:1:pos:R:3:forces:R:3 energy=-9.617900938008795 pbc="F F F"
Cl       0.00000000       0.00000000       0.00000000       0.00000000       0.00000000       0.00967718
Cl       0.00000000       0.00000000       5.88242424       0.00000000       0.00000000      -0.00967718
2
Properties=species:S:1:pos:R:3:forces:R:3 energy=-9.617505333364768 pbc="F F F"
Cl       0.00000000       0.00000000       0.00000000       0.00000000       0.00000000       0.00379233
Cl       0.00000000       0.00000000       5.94121212       0.00000000       0.00000000      -0.00379233
2
Properties=species:S:1:pos:R:3:forces:R:3 energy=-9.61738783480129 pbc="F F F"
Cl       0.00000000       0.00000000       0.00000000       0.00000000       0.00000000       0.00107791
Cl       0.00000000       0.00000000       6.00000000       0.00000000       0.00000000      -0.00107791
