2
Properties=species:S:1:pos:R:3:forces:R:3 energy=4687.273893324132 pbc="F F F"
Co       0.00000000       0.00000000       0.00000000       0.00000000       0.00000000  -56590.49218750
Co       0.00000000       0.00000000       0.18000000       0.00000000       0.00000000   56590.49218750
2
Properties=species:S:1:pos:R:3:forces:R:3 energy=2579.934537855382 pbc="F F F"
Co       0.00000000       0.00000000       0.00000000       0.00000000       0.00000000  -22272.19726562
Co       0.00000000       0.00000000       0.23878788       0.00000000       0.00000000   22272.19726562
2
Properties=species:S:1:pos:R:3:forces:R:3 energy=1616.842740980382 pbc="F F F"
Co       0.00000000       0.00000000       0.00000000       0.00000000       0.00000000  -12478.42285156
Co       0.00000000       0.00000000       0.29757576       0.00000000       0.00000000   12478.42285156
2
Properties=species:S:1:pos:R:3:forces:R:3 energy=1017.3595256483507 pbc="F F F"
Co       0.00000000       0.00000000       0.00000000       0.00000000       0.00000000   -8095.50000000
Co       0.00000000       0.00000000       0.35636364       0.00000000       0.00000000    8095.50000000
2
Properties=species:S:1:pos:R:3:forces:R:3 energy=541.7505778952363 pbc="F F F"
Co       0.00000000       0.00000000       0.00000000       0.00000000       0.00000000  -10548.32324219
Co       0.00000000       0.00000000       0.41515152       0.00000000       0.00000000   10548.32324219
2
Properties=species:S:1:pos:R:3:forces:R:3 energy=28.041934937225566 pbc="F F F"
Co       0.00000000       0.00000000       0.00000000       0.00000000       0.00000000   -6484.80224609
Co       0.00000000       0.00000000       0.47393939       0.00000000       0.00000000    6484.80224609
2
Properties=species:S:1:pos:R:3:forces:R:3 energy=-91.0975666328458 pbc="F F F"
Co       0.00000000       0.00000000       0.00000000       0.00000000       0.00000000    2120.02856445
Co       0.00000000       0.00000000       0.53272727       0.00000000       0.00000000   -2120.02856445
2
Properties=species:S:1:pos:R:3:forces:R:3 energy=-21.997123743325435 pbc="F F F"
Co       0.00000000       0.00000000       0.00000000       0.00000000       0.00000000     662.41918945
Co       0.00000000       0.00000000       0.59151515       0.00000000       0.00000000    -662.41918945
2
Properties=species:S:1:pos:R:3:forces:R:3 energy=61.02188680683345 pbc="F F F"
Co       0.00000000       0.00000000       0.00000000       0.00000000       0.00000000     703.44201660
Co       0.00000000       0.00000000       0.65030303       0.00000000       0.00000000    -703.44201660
2
Properties=species:S:1:pos:R:3:forces:R:3 energy=37.0030727286309 pbc="F F F"
Co       0.00000000       0.00000000       0.00000000       0.00000000       0.00000000    -579.82958984
Co       0.00000000       0.00000000       0.70909091       0.00000000       0.00000000     579.82958984
2
Properties=species:S:1:pos:R:3:forces:R:3 energy=13.515636448330435 pbc="F F F"
Co       0.00000000       0.00000000       0.00000000       0.00000000       0.00000000    -231.55770874
Co       0.00000000       0.00000000       0.76787879       0.00000000       0.00000000     231.55770874
2
Properties=species:S:1:pos:R:3:forces:R:3 energy=5.033437752919363 pbc="F F F"
Co       0.00000000       0.00000000       0.00000000       0.00000000       0.00000000    -102.88036346
Co       0.00000000       0.00000000       0.82666667       0.00000000       0.00000000     102.88036346
2
Properties=species:S:1:pos:R:3:forces:R:3 energy=-0.5280055466357045 pbc="F F F"
Co       0.00000000       0.00000000       0.00000000       0.00000000       0.00000000     -87.69967651
Co       0.00000000       0.00000000       0.88545455       0.00000000       0.00000000      87.69967651
2
Properties=species:S:1:pos:R:3:forces:R:3 energy=-5.004639531819703 pbc="F F F"
Co       0.00000000       0.00000000       0.00000000       0.00000000       0.00000000     -61.80485916
Co       0.00000000       0.00000000       0.94424242       0.00000000       0.00000000      61.80485916
2
Properties=species:S:1:pos:R:3:forces:R:3 energy=-7.605065196597659 pbc="F F F"
Co       0.00000000       0.00000000       0.00000000       0.00000000       0.00000000     -27.29142952
Co       0.00000000       0.00000000       1.00303030       0.00000000       0.00000000      27.29142952
2
Properties=species:S:1:pos:R:3:forces:R:3 energy=-8.58563973000296 pbc="F F F"
Co       0.00000000       0.00000000       0.00000000       0.00000000       0.00000000     -10.08799839
Co       0.00000000       0.00000000       1.06181818       0.00000000       0.00000000      10.08799839
2
Properties=species:S:1:pos:R:3:forces:R:3 energy=-9.030752813076388 pbc="F F F"
Co       0.00000000       0.00000000       0.00000000       0.00000000       0.00000000      -5.79746485
Co       0.00000000       0.00000000       1.12060606       0.00000000       0.00000000       5.79746485
2
Properties=species:S:1:pos:R:3:forces:R:3 energy=-9.290360953517384 pbc="F F F"
Co       0.00000000       0.00000000       0.00000000       0.00000000       0.00000000      -7.13486671
Co       0.00000000       0.00000000       1.17939394       0.00000000       0.00000000       7.13486671
2
Properties=species:S:1:pos:R:3:forces:R:3 energy=-10.07443175583465 pbc="F F F"
Co       0.00000000       0.00000000       0.00000000       0.00000000       0.00000000     -19.62686539
Co       0.00000000       0.00000000       1.23818182       0.00000000       0.00000000      19.62686539
2
Properties=species:S:1:pos:R:3:forces:R:3 energy=-11.442429667551469 pbc="F F F"
Co       0.00000000       0.00000000       0.00000000       0.00000000       0.00000000     -24.76244545
Co       0.00000000       0.00000000       1.29696970       0.00000000       0.00000000      24.76244545
2
Properties=species:S:1:pos:R:3:forces:R:3 energy=-12.879307609759888 pbc="F F F"
Co       0.00000000       0.00000000       0.00000000       0.00000000       0.00000000     -23.61858368
Co       0.00000000       0.00000000       1.35575758       0.00000000       0.00000000      23.61858368
2
Properties=species:S:1:pos:R:3:forces:R:3 energy=-14.138250843589331 pbc="F F F"
Co       0.00000000       0.00000000       0.00000000       0.00000000       0.00000000     -18.89833641
Co       0.00000000       0.00000000       1.41454545       0.00000000       0.00000000      18.89833641
2
Properties=species:S:1:pos:R:3:forces:R:3 energy=-15.13637171871171 pbc="F F F"
Co       0.00000000       0.00000000       0.00000000       0.00000000       0.00000000     -15.56978989
Co       0.00000000       0.00000000       1.47333333       0.00000000       0.00000000      15.56978989
2
Properties=species:S:1:pos:R:3:forces:R:3 energy=-16.00499501824058 pbc="F F F"
Co       0.00000000       0.00000000       0.00000000       0.00000000       0.00000000     -14.05133915
Co       0.00000000       0.00000000       1.53212121       0.00000000       0.00000000      14.05133915
2
Properties=species:S:1:pos:R:3:forces:R:3 energy=-16.779059607492833 pbc="F F F"
Co       0.00000000       0.00000000       0.00000000       0.00000000       0.00000000     -12.12249851
Co       0.00000000       0.00000000       1.59090909       0.00000000       0.00000000      12.12249851
2
Properties=species:S:1:pos:R:3:forces:R:3 energy=-17.41215220659764 pbc="F F F"
Co       0.00000000       0.00000000       0.00000000       0.00000000       0.00000000      -9.31038761
Co       0.00000000       0.00000000       1.64969697       0.00000000       0.00000000       9.31038761
2
Properties=species:S:1:pos:R:3:forces:R:3 energy=-17.87126455293799 pbc="F F F"
Co       0.00000000       0.00000000       0.00000000       0.00000000       0.00000000      -6.37287426
Co       0.00000000       0.00000000       1.70848485       0.00000000       0.00000000       6.37287426
2
Properties=species:S:1:pos:R:3:forces:R:3 energy=-18.17587895326906 pbc="F F F"
Co       0.00000000       0.00000000       0.00000000       0.00000000       0.00000000      -4.14462519
Co       0.00000000       0.00000000       1.76727273       0.00000000       0.00000000       4.14462519
2
Properties=species:S:1:pos:R:3:forces:R:3 energy=-18.375883356828115 pbc="F F F"
Co       0.00000000       0.00000000       0.00000000       0.00000000       0.00000000      -2.78186727
Co       0.00000000       0.00000000       1.82606061       0.00000000       0.00000000       2.78186727
2
Properties=species:S:1:pos:R:3:forces:R:3 energy=-18.51319022387545 pbc="F F F"
Co       0.00000000       0.00000000       0.00000000       0.00000000       0.00000000      -1.94404268
Co       0.00000000       0.00000000       1.88484848       0.00000000       0.00000000       1.94404268
2
Properties=species:S:1:pos:R:3:forces:R:3 energy=-18.608299976839664 pbc="F F F"
Co       0.00000000       0.00000000       0.00000000       0.00000000       0.00000000      -1.30903959
Co       0.00000000       0.00000000       1.94363636       0.00000000       0.00000000       1.30903959
2
Properties=species:S:1:pos:R:3:forces:R:3 energy=-18.668162406812826 pbc="F F F"
Co       0.00000000       0.00000000       0.00000000       0.00000000       0.00000000      -0.73157984
Co       0.00000000       0.00000000       2.00242424       0.00000000       0.00000000       0.73157984
2
Properties=species:S:1:pos:R:3:forces:R:3 energy=-18.694723758256057 pbc="F F F"
Co       0.00000000       0.00000000       0.00000000       0.00000000       0.00000000      -0.17721452
Co       0.00000000       0.00000000       2.06121212       0.00000000       0.00000000       0.17721452
2
Properties=species:S:1:pos:R:3:forces:R:3 energy=-18.68997769640247 pbc="F F F"
Co       0.00000000       0.00000000       0.00000000       0.00000000       0.00000000       0.32738802
Co       0.00000000       0.00000000       2.12000000       0.00000000       0.00000000      -0.32738802
2
Properties=species:S:1:pos:R:3:forces:R:3 energy=-18.657898253186328 pbc="F F F"
Co       0.00000000       0.00000000       0.00000000       0.00000000       0.00000000       0.74573779
Co       0.00000000       0.00000000       2.17878788       0.00000000       0.00000000      -0.74573779
2
Properties=species:S:1:pos:R:3:forces:R:3 energy=-18.605277509171405 pbc="F F F"
Co       0.00000000       0.00000000       0.00000000       0.00000000       0.00000000       1.01012707
Co       0.00000000       0.00000000       2.23757576       0.00000000       0.00000000      -1.01012707
2
Properties=species:S:1:pos:R:3:forces:R:3 energy=-18.544193176612474 pbc="F F F"
Co       0.00000000       0.00000000       0.00000000       0.00000000       0.00000000       1.01910830
Co       0.00000000       0.00000000       2.29636364       0.00000000       0.00000000      -1.01910830
2
Properties=species:S:1:pos:R:3:forces:R:3 energy=-18.490991365322586 pbc="F F F"
Co       0.00000000       0.00000000       0.00000000       0.00000000       0.00000000       0.75148153
Co       0.00000000       0.00000000       2.35515152       0.00000000       0.00000000      -0.75148153
2
Properties=species:S:1:pos:R:3:forces:R:3 energy=-18.458669413080525 pbc="F F F"
Co       0.00000000       0.00000000       0.00000000       0.00000000       0.00000000       0.34237930
Co       0.00000000       0.00000000       2.41393939       0.00000000       0.00000000      -0.34237930
2
Properties=species:S:1:pos:R:3:forces:R:3 energy=-18.44925509779216 pbc="F F F"
Co       0.00000000       0.00000000       0.00000000       0.00000000       0.00000000       0.00598895
Co       0.00000000       0.00000000       2.47272727       0.00000000       0.00000000      -0.00598895
2
Properties=species:S:1:pos:R:3:forces:R:3 energy=-18.453772816507794 pbc="F F F"
Co       0.00000000       0.00000000       0.00000000       0.00000000       0.00000000      -0.12256278
Co       0.00000000       0.00000000       2.53151515       0.00000000       0.00000000       0.12256278
2
Properties=species:S:1:pos:R:3:forces:R:3 energy=-18.459913043378126 pbc="F F F"
Co       0.00000000       0.00000000       0.00000000       0.00000000       0.00000000      -0.06205138
Co       0.00000000       0.00000000       2.59030303       0.00000000       0.00000000       0.06205138
2
Properties=species:S:1:pos:R:3:forces:R:3 energy=-18.45926650737927 pbc="F F F"
Co       0.00000000       0.00000000       0.00000000       0.00000000       0.00000000       0.09073370
Co       0.00000000       0.00000000       2.64909091       0.00000000       0.00000000      -0.09073370
2
Properties=species:S:1:pos:R:3:forces:R:3 energy=-18.44926085756846 pbc="F F F"
Co       0.00000000       0.00000000       0.00000000       0.00000000       0.00000000       0.24461682
Co       0.00000000       0.00000000       2.70787879       0.00000000       0.00000000      -0.24461682
2
Properties=species:S:1:pos:R:3:forces:R:3 energy=-18.431331379995637 pbc="F F F"
Co       0.00000000       0.00000000       0.00000000       0.00000000       0.00000000       0.35815868
Co       0.00000000       0.00000000       2.76666667       0.00000000       0.00000000      -0.35815868
2
Properties=species:S:1:pos:R:3:forces:R:3 energy=-18.407792014430846 pbc="F F F"
Co       0.00000000       0.00000000       0.00000000       0.00000000       0.00000000       0.43939704
Co       0.00000000       0.00000000       2.82545455       0.00000000       0.00000000      -0.43939704
2
Properties=species:S:1:pos:R:3:forces:R:3 energy=-18.37980945980951 pbc="F F F"
Co       0.00000000       0.00000000       0.00000000       0.00000000       0.00000000       0.51305288
Co       0.00000000       0.00000000       2.88424242       0.00000000       0.00000000      -0.51305288
2
Properties=species:S:1:pos:R:3:forces:R:3 energy=-18.347294733765235 pbc="F F F"
Co       0.00000000       0.00000000       0.00000000       0.00000000       0.00000000       0.59522676
Co       0.00000000       0.00000000       2.94303030       0.00000000       0.00000000      -0.59522676
2
Properties=species:S:1:pos:R:3:forces:R:3 energy=-18.309552777039986 pbc="F F F"
Co       0.00000000       0.00000000       0.00000000       0.00000000       0.00000000       0.69123745
Co       0.00000000       0.00000000       3.00181818       0.00000000       0.00000000      -0.69123745
2
Properties=species:S:1:pos:R:3:forces:R:3 energy=-18.265740682506152 pbc="F F F"
Co       0.00000000       0.00000000       0.00000000       0.00000000       0.00000000       0.80146009
Co       0.00000000       0.00000000       3.06060606       0.00000000       0.00000000      -0.80146009
2
Properties=species:S:1:pos:R:3:forces:R:3 energy=-18.215108692672548 pbc="F F F"
Co       0.00000000       0.00000000       0.00000000       0.00000000       0.00000000       0.92233181
Co       0.00000000       0.00000000       3.11939394       0.00000000       0.00000000      -0.92233181
2
Properties=species:S:1:pos:R:3:forces:R:3 energy=-18.157257869147905 pbc="F F F"
Co       0.00000000       0.00000000       0.00000000       0.00000000       0.00000000       1.04510033
Co       0.00000000       0.00000000       3.17818182       0.00000000       0.00000000      -1.04510033
2
Properties=species:S:1:pos:R:3:forces:R:3 energy=-18.092426285218707 pbc="F F F"
Co       0.00000000       0.00000000       0.00000000       0.00000000       0.00000000       1.15790141
Co       0.00000000       0.00000000       3.23696970       0.00000000       0.00000000      -1.15790141
2
Properties=species:S:1:pos:R:3:forces:R:3 energy=-18.021515725562242 pbc="F F F"
Co       0.00000000       0.00000000       0.00000000       0.00000000       0.00000000       1.25060320
Co       0.00000000       0.00000000       3.29575758       0.00000000       0.00000000      -1.25060320
2
Properties=species:S:1:pos:R:3:forces:R:3 energy=-17.94587619386495 pbc="F F F"
Co       0.00000000       0.00000000       0.00000000       0.00000000       0.00000000       1.31840909
Co       0.00000000       0.00000000       3.35454545       0.00000000       0.00000000      -1.31840909
2
Properties=species:S:1:pos:R:3:forces:R:3 energy=-17.866972128395595 pbc="F F F"
Co       0.00000000       0.00000000       0.00000000       0.00000000       0.00000000       1.36232460
Co       0.00000000       0.00000000       3.41333333       0.00000000       0.00000000      -1.36232460
2
Properties=species:S:1:pos:R:3:forces:R:3 energy=-17.786071486755095 pbc="F F F"
Co       0.00000000       0.00000000       0.00000000       0.00000000       0.00000000       1.38736808
Co       0.00000000       0.00000000       3.47212121       0.00000000       0.00000000      -1.38736808
2
Properties=species:S:1:pos:R:3:forces:R:3 energy=-17.70409318016066 pbc="F F F"
Co       0.00000000       0.00000000       0.00000000       0.00000000       0.00000000       1.40007019
Co       0.00000000       0.00000000       3.53090909       0.00000000       0.00000000      -1.40007019
2
Properties=species:S:1:pos:R:3:forces:R:3 energy=-17.62158419159782 pbc="F F F"
Co       0.00000000       0.00000000       0.00000000       0.00000000       0.00000000       1.40623164
Co       0.00000000       0.00000000       3.58969697       0.00000000       0.00000000      -1.40623164
2
Properties=species:S:1:pos:R:3:forces:R:3 energy=-17.53881302323217 pbc="F F F"
Co       0.00000000       0.00000000       0.00000000       0.00000000       0.00000000       1.40935862
Co       0.00000000       0.00000000       3.64848485       0.00000000       0.00000000      -1.40935862
2
Properties=species:S:1:pos:R:3:forces:R:3 energy=-17.455922304890827 pbc="F F F"
Co       0.00000000       0.00000000       0.00000000       0.00000000       0.00000000       1.41013777
Co       0.00000000       0.00000000       3.70727273       0.00000000       0.00000000      -1.41013777
2
Properties=species:S:1:pos:R:3:forces:R:3 energy=-17.37309091077666 pbc="F F F"
Co       0.00000000       0.00000000       0.00000000       0.00000000       0.00000000       1.40695167
Co       0.00000000       0.00000000       3.76606061       0.00000000       0.00000000      -1.40695167
2
Properties=species:S:1:pos:R:3:forces:R:3 energy=-17.29062935065861 pbc="F F F"
Co       0.00000000       0.00000000       0.00000000       0.00000000       0.00000000       1.39709079
Co       0.00000000       0.00000000       3.82484848       0.00000000       0.00000000      -1.39709079
2
Properties=species:S:1:pos:R:3:forces:R:3 energy=-17.209006437906485 pbc="F F F"
Co       0.00000000       0.00000000       0.00000000       0.00000000       0.00000000       1.37803781
Co       0.00000000       0.00000000       3.88363636       0.00000000       0.00000000      -1.37803781
2
Properties=species:S:1:pos:R:3:forces:R:3 energy=-17.128815023739858 pbc="F F F"
Co       0.00000000       0.00000000       0.00000000       0.00000000       0.00000000       1.34837770
Co       0.00000000       0.00000000       3.94242424       0.00000000       0.00000000      -1.34837770
2
Properties=species:S:1:pos:R:3:forces:R:3 energy=-17.05068039697634 pbc="F F F"
Co       0.00000000       0.00000000       0.00000000       0.00000000       0.00000000       1.30812109
Co       0.00000000       0.00000000       4.00121212       0.00000000       0.00000000      -1.30812109
2
Properties=species:S:1:pos:R:3:forces:R:3 energy=-16.975195457936746 pbc="F F F"
Co       0.00000000       0.00000000       0.00000000       0.00000000       0.00000000       1.25851130
Co       0.00000000       0.00000000       4.06000000       0.00000000       0.00000000      -1.25851130
2
Properties=species:S:1:pos:R:3:forces:R:3 energy=-16.90285399133724 pbc="F F F"
Co       0.00000000       0.00000000       0.00000000       0.00000000       0.00000000       1.20154178
Co       0.00000000       0.00000000       4.11878788       0.00000000       0.00000000      -1.20154178
2
Properties=species:S:1:pos:R:3:forces:R:3 energy=-16.83402583591109 pbc="F F F"
Co       0.00000000       0.00000000       0.00000000       0.00000000       0.00000000       1.13936484
Co       0.00000000       0.00000000       4.17757576       0.00000000       0.00000000      -1.13936484
2
Properties=species:S:1:pos:R:3:forces:R:3 energy=-16.76895692717423 pbc="F F F"
Co       0.00000000       0.00000000       0.00000000       0.00000000       0.00000000       1.07381439
Co       0.00000000       0.00000000       4.23636364       0.00000000       0.00000000      -1.07381439
2
Properties=species:S:1:pos:R:3:forces:R:3 energy=-16.707809323236198 pbc="F F F"
Co       0.00000000       0.00000000       0.00000000       0.00000000       0.00000000       1.00614405
Co       0.00000000       0.00000000       4.29515152       0.00000000       0.00000000      -1.00614405
2
Properties=species:S:1:pos:R:3:forces:R:3 energy=-16.6506879726213 pbc="F F F"
Co       0.00000000       0.00000000       0.00000000       0.00000000       0.00000000       0.93704134
Co       0.00000000       0.00000000       4.35393939       0.00000000       0.00000000      -0.93704134
2
Properties=species:S:1:pos:R:3:forces:R:3 energy=-16.59766162857934 pbc="F F F"
Co       0.00000000       0.00000000       0.00000000       0.00000000       0.00000000       0.86679560
Co       0.00000000       0.00000000       4.41272727       0.00000000       0.00000000      -0.86679560
2
Properties=species:S:1:pos:R:3:forces:R:3 energy=-16.54879151000025 pbc="F F F"
Co       0.00000000       0.00000000       0.00000000       0.00000000       0.00000000       0.79564857
Co       0.00000000       0.00000000       4.47151515       0.00000000       0.00000000      -0.79564857
2
Properties=species:S:1:pos:R:3:forces:R:3 energy=-16.50411984940275 pbc="F F F"
Co       0.00000000       0.00000000       0.00000000       0.00000000       0.00000000       0.72402507
Co       0.00000000       0.00000000       4.53030303       0.00000000       0.00000000      -0.72402507
2
Properties=species:S:1:pos:R:3:forces:R:3 energy=-16.46365845676209 pbc="F F F"
Co       0.00000000       0.00000000       0.00000000       0.00000000       0.00000000       0.65266258
Co       0.00000000       0.00000000       4.58909091       0.00000000       0.00000000      -0.65266258
2
Properties=species:S:1:pos:R:3:forces:R:3 energy=-16.427358189260655 pbc="F F F"
Co       0.00000000       0.00000000       0.00000000       0.00000000       0.00000000       0.58258200
Co       0.00000000       0.00000000       4.64787879       0.00000000       0.00000000      -0.58258200
2
Properties=species:S:1:pos:R:3:forces:R:3 energy=-16.395110876059604 pbc="F F F"
Co       0.00000000       0.00000000       0.00000000       0.00000000       0.00000000       0.51498139
Co       0.00000000       0.00000000       4.70666667       0.00000000       0.00000000      -0.51498139
2
Properties=species:S:1:pos:R:3:forces:R:3 energy=-16.366735946267607 pbc="F F F"
Co       0.00000000       0.00000000       0.00000000       0.00000000       0.00000000       0.45113626
Co       0.00000000       0.00000000       4.76545455       0.00000000       0.00000000      -0.45113626
2
Properties=species:S:1:pos:R:3:forces:R:3 energy=-16.341970908036785 pbc="F F F"
Co       0.00000000       0.00000000       0.00000000       0.00000000       0.00000000       0.39232415
Co       0.00000000       0.00000000       4.82424242       0.00000000       0.00000000      -0.39232415
2
Properties=species:S:1:pos:R:3:forces:R:3 energy=-16.32048468258012 pbc="F F F"
Co       0.00000000       0.00000000       0.00000000       0.00000000       0.00000000       0.33983594
Co       0.00000000       0.00000000       4.88303030       0.00000000       0.00000000      -0.33983594
2
Properties=species:S:1:pos:R:3:forces:R:3 energy=-16.30186424639538 pbc="F F F"
Co       0.00000000       0.00000000       0.00000000       0.00000000       0.00000000       0.29495412
Co       0.00000000       0.00000000       4.94181818       0.00000000       0.00000000      -0.29495412
2
Properties=species:S:1:pos:R:3:forces:R:3 energy=-16.285631781563712 pbc="F F F"
Co       0.00000000       0.00000000       0.00000000       0.00000000       0.00000000       0.25886598
Co       0.00000000       0.00000000       5.00060606       0.00000000       0.00000000      -0.25886598
2
Properties=species:S:1:pos:R:3:forces:R:3 energy=-16.27124087213974 pbc="F F F"
Co       0.00000000       0.00000000       0.00000000       0.00000000       0.00000000       0.23228127
Co       0.00000000       0.00000000       5.05939394       0.00000000       0.00000000      -0.23228127
2
Properties=species:S:1:pos:R:3:forces:R:3 energy=-16.25813940864259 pbc="F F F"
Co       0.00000000       0.00000000       0.00000000       0.00000000       0.00000000       0.21485700
Co       0.00000000       0.00000000       5.11818182       0.00000000       0.00000000      -0.21485700
2
Properties=species:S:1:pos:R:3:forces:R:3 energy=-16.245842068887853 pbc="F F F"
Co       0.00000000       0.00000000       0.00000000       0.00000000       0.00000000       0.20443179
Co       0.00000000       0.00000000       5.17696970       0.00000000       0.00000000      -0.20443179
2
Properties=species:S:1:pos:R:3:forces:R:3 energy=-16.23405618557431 pbc="F F F"
Co       0.00000000       0.00000000       0.00000000       0.00000000       0.00000000       0.19644696
Co       0.00000000       0.00000000       5.23575758       0.00000000       0.00000000      -0.19644696
2
Properties=species:S:1:pos:R:3:forces:R:3 energy=-16.22282479267969 pbc="F F F"
Co       0.00000000       0.00000000       0.00000000       0.00000000       0.00000000       0.18440333
Co       0.00000000       0.00000000       5.29454545       0.00000000       0.00000000      -0.18440333
2
Properties=species:S:1:pos:R:3:forces:R:3 energy=-16.21255711769618 pbc="F F F"
Co       0.00000000       0.00000000       0.00000000       0.00000000       0.00000000       0.16335928
Co       0.00000000       0.00000000       5.35333333       0.00000000       0.00000000      -0.16335928
2
Properties=species:S:1:pos:R:3:forces:R:3 energy=-16.20370431969159 pbc="F F F"
Co       0.00000000       0.00000000       0.00000000       0.00000000       0.00000000       0.13845760
Co       0.00000000       0.00000000       5.41212121       0.00000000       0.00000000      -0.13845760
2
Properties=species:S:1:pos:R:3:forces:R:3 energy=-16.19599082781032 pbc="F F F"
Co       0.00000000       0.00000000       0.00000000       0.00000000       0.00000000       0.12763758
Co       0.00000000       0.00000000       5.47090909       0.00000000       0.00000000      -0.12763758
2
Properties=species:S:1:pos:R:3:forces:R:3 energy=-16.188349469245086 pbc="F F F"
Co       0.00000000       0.00000000       0.00000000       0.00000000       0.00000000       0.13311461
Co       0.00000000       0.00000000       5.52969697       0.00000000       0.00000000      -0.13311461
2
Properties=species:S:1:pos:R:3:forces:R:3 energy=-16.180544611044105 pbc="F F F"
Co       0.00000000       0.00000000       0.00000000       0.00000000       0.00000000       0.12935604
Co       0.00000000       0.00000000       5.58848485       0.00000000       0.00000000      -0.12935604
2
Properties=species:S:1:pos:R:3:forces:R:3 energy=-16.173414410018545 pbc="F F F"
Co       0.00000000       0.00000000       0.00000000       0.00000000       0.00000000       0.11249971
Co       0.00000000       0.00000000       5.64727273       0.00000000       0.00000000      -0.11249971
2
Properties=species:S:1:pos:R:3:forces:R:3 energy=-16.167146527604796 pbc="F F F"
Co       0.00000000       0.00000000       0.00000000       0.00000000       0.00000000       0.10408084
Co       0.00000000       0.00000000       5.70606061       0.00000000       0.00000000      -0.10408084
2
Properties=species:S:1:pos:R:3:forces:R:3 energy=-16.160810845288573 pbc="F F F"
Co       0.00000000       0.00000000       0.00000000       0.00000000       0.00000000       0.11206202
Co       0.00000000       0.00000000       5.76484848       0.00000000       0.00000000      -0.11206202
2
Properties=species:S:1:pos:R:3:forces:R:3 energy=-16.15428399204668 pbc="F F F"
Co       0.00000000       0.00000000       0.00000000       0.00000000       0.00000000       0.10468724
Co       0.00000000       0.00000000       5.82363636       0.00000000       0.00000000      -0.10468724
2
Properties=species:S:1:pos:R:3:forces:R:3 energy=-16.14918390637128 pbc="F F F"
Co       0.00000000       0.00000000       0.00000000       0.00000000       0.00000000       0.06544403
Co       0.00000000       0.00000000       5.88242424       0.00000000       0.00000000      -0.06544403
2
Properties=species:S:1:pos:R:3:forces:R:3 energy=-16.14665924850684 pbc="F F F"
Co       0.00000000       0.00000000       0.00000000       0.00000000       0.00000000       0.02245566
Co       0.00000000       0.00000000       5.94121212       0.00000000       0.00000000      -0.02245566
2
Properties=species:S:1:pos:R:3:forces:R:3 energy=-16.146023733285304 pbc="F F F"
Co       0.00000000       0.00000000       0.00000000       0.00000000       0.00000000       0.00492875
Co       0.00000000       0.00000000       6.00000000       0.00000000       0.00000000      -0.00492875
