2
Properties=species:S:1:pos:R:3:forces:R:3 energy=4687.275846449132 pbc="F F F"
Co       0.00000000       0.00000000       0.00000000       0.00000000       0.00000000  -56590.47656250
Co       0.00000000       0.00000000       0.18000000       0.00000000       0.00000000   56590.47656250
2
Properties=species:S:1:pos:R:3:forces:R:3 energy=2579.933317152257 pbc="F F F"
Co       0.00000000       0.00000000       0.00000000       0.00000000       0.00000000  -22272.20507812
Co       0.00000000       0.00000000       0.23878788       0.00000000       0.00000000   22272.20507812
2
Properties=species:S:1:pos:R:3:forces:R:3 energy=1616.836149183507 pbc="F F F"
Co       0.00000000       0.00000000       0.00000000       0.00000000       0.00000000  -12478.40136719
Co       0.00000000       0.00000000       0.29757576       0.00000000       0.00000000   12478.40136719
2
Properties=species:S:1:pos:R:3:forces:R:3 energy=1017.3590373671007 pbc="F F F"
Co       0.00000000       0.00000000       0.00000000       0.00000000       0.00000000   -8095.49658203
Co       0.00000000       0.00000000       0.35636364       0.00000000       0.00000000    8095.49658203
2
Properties=species:S:1:pos:R:3:forces:R:3 energy=541.7447795553926 pbc="F F F"
Co       0.00000000       0.00000000       0.00000000       0.00000000       0.00000000  -10548.25878906
Co       0.00000000       0.00000000       0.41515152       0.00000000       0.00000000   10548.25878906
2
Properties=species:S:1:pos:R:3:forces:R:3 energy=28.03942105172752 pbc="F F F"
Co       0.00000000       0.00000000       0.00000000       0.00000000       0.00000000   -6484.76464844
Co       0.00000000       0.00000000       0.47393939       0.00000000       0.00000000    6484.76464844
2
Properties=species:S:1:pos:R:3:forces:R:3 energy=-91.09694102249424 pbc="F F F"
Co       0.00000000       0.00000000       0.00000000       0.00000000       0.00000000    2120.03833008
Co       0.00000000       0.00000000       0.53272727       0.00000000       0.00000000   -2120.03833008
2
Properties=species:S:1:pos:R:3:forces:R:3 energy=-21.99659731510278 pbc="F F F"
Co       0.00000000       0.00000000       0.00000000       0.00000000       0.00000000     662.42077637
Co       0.00000000       0.00000000       0.59151515       0.00000000       0.00000000    -662.42077637
2
Properties=species:S:1:pos:R:3:forces:R:3 energy=61.02219961200923 pbc="F F F"
Co       0.00000000       0.00000000       0.00000000       0.00000000       0.00000000     703.43664551
Co       0.00000000       0.00000000       0.65030303       0.00000000       0.00000000    -703.43664551
2
Properties=species:S:1:pos:R:3:forces:R:3 energy=37.00310324620902 pbc="F F F"
Co       0.00000000       0.00000000       0.00000000       0.00000000       0.00000000    -579.82958984
Co       0.00000000       0.00000000       0.70909091       0.00000000       0.00000000     579.82958984
2
Properties=species:S:1:pos:R:3:forces:R:3 energy=13.515539173550161 pbc="F F F"
Co       0.00000000       0.00000000       0.00000000       0.00000000       0.00000000    -231.55775452
Co       0.00000000       0.00000000       0.76787879       0.00000000       0.00000000     231.55775452
2
Properties=species:S:1:pos:R:3:forces:R:3 energy=5.033378625111745 pbc="F F F"
Co       0.00000000       0.00000000       0.00000000       0.00000000       0.00000000    -102.88034821
Co       0.00000000       0.00000000       0.82666667       0.00000000       0.00000000     102.88034821
2
Properties=species:S:1:pos:R:3:forces:R:3 energy=-0.5280351105395131 pbc="F F F"
Co       0.00000000       0.00000000       0.00000000       0.00000000       0.00000000     -87.69972992
Co       0.00000000       0.00000000       0.88545455       0.00000000       0.00000000      87.69972992
2
Properties=species:S:1:pos:R:3:forces:R:3 energy=-5.004643346516969 pbc="F F F"
Co       0.00000000       0.00000000       0.00000000       0.00000000       0.00000000     -61.80500412
Co       0.00000000       0.00000000       0.94424242       0.00000000       0.00000000      61.80500412
2
Properties=species:S:1:pos:R:3:forces:R:3 energy=-7.605081409061038 pbc="F F F"
Co       0.00000000       0.00000000       0.00000000       0.00000000       0.00000000     -27.29133797
Co       0.00000000       0.00000000       1.00303030       0.00000000       0.00000000      27.29133797
2
Properties=species:S:1:pos:R:3:forces:R:3 energy=-8.585638776328643 pbc="F F F"
Co       0.00000000       0.00000000       0.00000000       0.00000000       0.00000000     -10.08803368
Co       0.00000000       0.00000000       1.06181818       0.00000000       0.00000000      10.08803368
2
Properties=species:S:1:pos:R:3:forces:R:3 energy=-9.030755674099337 pbc="F F F"
Co       0.00000000       0.00000000       0.00000000       0.00000000       0.00000000      -5.79735708
Co       0.00000000       0.00000000       1.12060606       0.00000000       0.00000000       5.79735708
2
Properties=species:S:1:pos:R:3:forces:R:3 energy=-9.290360953517384 pbc="F F F"
Co       0.00000000       0.00000000       0.00000000       0.00000000       0.00000000      -7.13479090
Co       0.00000000       0.00000000       1.17939394       0.00000000       0.00000000       7.13479090
2
Properties=species:S:1:pos:R:3:forces:R:3 energy=-10.074429848486018 pbc="F F F"
Co       0.00000000       0.00000000       0.00000000       0.00000000       0.00000000     -19.62683487
Co       0.00000000       0.00000000       1.23818182       0.00000000       0.00000000      19.62683487
2
Properties=species:S:1:pos:R:3:forces:R:3 energy=-11.442429667551469 pbc="F F F"
Co       0.00000000       0.00000000       0.00000000       0.00000000       0.00000000     -24.76241684
Co       0.00000000       0.00000000       1.29696970       0.00000000       0.00000000      24.76241684
2
Properties=species:S:1:pos:R:3:forces:R:3 energy=-12.879307608967933 pbc="F F F"
Co       0.00000000       0.00000000       0.00000000       0.00000000       0.00000000     -23.61859703
Co       0.00000000       0.00000000       1.35575758       0.00000000       0.00000000      23.61859703
2
Properties=species:S:1:pos:R:3:forces:R:3 energy=-14.138251797263647 pbc="F F F"
Co       0.00000000       0.00000000       0.00000000       0.00000000       0.00000000     -18.89834213
Co       0.00000000       0.00000000       1.41454545       0.00000000       0.00000000      18.89834213
2
Properties=species:S:1:pos:R:3:forces:R:3 energy=-15.136371717919754 pbc="F F F"
Co       0.00000000       0.00000000       0.00000000       0.00000000       0.00000000     -15.56977272
Co       0.00000000       0.00000000       1.47333333       0.00000000       0.00000000      15.56977272
2
Properties=species:S:1:pos:R:3:forces:R:3 energy=-16.00499311089195 pbc="F F F"
Co       0.00000000       0.00000000       0.00000000       0.00000000       0.00000000     -14.05134296
Co       0.00000000       0.00000000       1.53212121       0.00000000       0.00000000      14.05134296
2
Properties=species:S:1:pos:R:3:forces:R:3 energy=-16.779059606700876 pbc="F F F"
Co       0.00000000       0.00000000       0.00000000       0.00000000       0.00000000     -12.12250328
Co       0.00000000       0.00000000       1.59090909       0.00000000       0.00000000      12.12250328
2
Properties=species:S:1:pos:R:3:forces:R:3 energy=-17.41215220659764 pbc="F F F"
Co       0.00000000       0.00000000       0.00000000       0.00000000       0.00000000      -9.31038570
Co       0.00000000       0.00000000       1.64969697       0.00000000       0.00000000       9.31038570
2
Properties=species:S:1:pos:R:3:forces:R:3 energy=-17.871264552146034 pbc="F F F"
Co       0.00000000       0.00000000       0.00000000       0.00000000       0.00000000      -6.37287760
Co       0.00000000       0.00000000       1.70848485       0.00000000       0.00000000       6.37287760
2
Properties=species:S:1:pos:R:3:forces:R:3 energy=-18.175878952477103 pbc="F F F"
Co       0.00000000       0.00000000       0.00000000       0.00000000       0.00000000      -4.14462566
Co       0.00000000       0.00000000       1.76727273       0.00000000       0.00000000       4.14462566
2
Properties=species:S:1:pos:R:3:forces:R:3 energy=-18.375883357620072 pbc="F F F"
Co       0.00000000       0.00000000       0.00000000       0.00000000       0.00000000      -2.78186893
Co       0.00000000       0.00000000       1.82606061       0.00000000       0.00000000       2.78186893
2
Properties=species:S:1:pos:R:3:forces:R:3 energy=-18.51318831652682 pbc="F F F"
Co       0.00000000       0.00000000       0.00000000       0.00000000       0.00000000      -1.94404387
Co       0.00000000       0.00000000       1.88484848       0.00000000       0.00000000       1.94404387
2
Properties=species:S:1:pos:R:3:forces:R:3 energy=-18.608298070282988 pbc="F F F"
Co       0.00000000       0.00000000       0.00000000       0.00000000       0.00000000      -1.30903971
Co       0.00000000       0.00000000       1.94363636       0.00000000       0.00000000       1.30903971
2
Properties=species:S:1:pos:R:3:forces:R:3 energy=-18.668162406812826 pbc="F F F"
Co       0.00000000       0.00000000       0.00000000       0.00000000       0.00000000      -0.73158067
Co       0.00000000       0.00000000       2.00242424       0.00000000       0.00000000       0.73158067
2
Properties=species:S:1:pos:R:3:forces:R:3 energy=-18.694723758256057 pbc="F F F"
Co       0.00000000       0.00000000       0.00000000       0.00000000       0.00000000      -0.17721315
Co       0.00000000       0.00000000       2.06121212       0.00000000       0.00000000       0.17721315
2
Properties=species:S:1:pos:R:3:forces:R:3 energy=-18.68997769640247 pbc="F F F"
Co       0.00000000       0.00000000       0.00000000       0.00000000       0.00000000       0.32738739
Co       0.00000000       0.00000000       2.12000000       0.00000000       0.00000000      -0.32738739
2
Properties=species:S:1:pos:R:3:forces:R:3 energy=-18.65789825239437 pbc="F F F"
Co       0.00000000       0.00000000       0.00000000       0.00000000       0.00000000       0.74573892
Co       0.00000000       0.00000000       2.17878788       0.00000000       0.00000000      -0.74573892
2
Properties=species:S:1:pos:R:3:forces:R:3 energy=-18.605277509171405 pbc="F F F"
Co       0.00000000       0.00000000       0.00000000       0.00000000       0.00000000       1.01012897
Co       0.00000000       0.00000000       2.23757576       0.00000000       0.00000000      -1.01012897
2
Properties=species:S:1:pos:R:3:forces:R:3 energy=-18.544195083961107 pbc="F F F"
Co       0.00000000       0.00000000       0.00000000       0.00000000       0.00000000       1.01910710
Co       0.00000000       0.00000000       2.29636364       0.00000000       0.00000000      -1.01910710
2
Properties=species:S:1:pos:R:3:forces:R:3 energy=-18.490993279006865 pbc="F F F"
Co       0.00000000       0.00000000       0.00000000       0.00000000       0.00000000       0.75148165
Co       0.00000000       0.00000000       2.35515152       0.00000000       0.00000000      -0.75148165
2
Properties=species:S:1:pos:R:3:forces:R:3 energy=-18.458669413080525 pbc="F F F"
Co       0.00000000       0.00000000       0.00000000       0.00000000       0.00000000       0.34237939
Co       0.00000000       0.00000000       2.41393939       0.00000000       0.00000000      -0.34237939
2
Properties=species:S:1:pos:R:3:forces:R:3 energy=-18.44925509779216 pbc="F F F"
Co       0.00000000       0.00000000       0.00000000       0.00000000       0.00000000       0.00599045
Co       0.00000000       0.00000000       2.47272727       0.00000000       0.00000000      -0.00599045
2
Properties=species:S:1:pos:R:3:forces:R:3 energy=-18.453774733359893 pbc="F F F"
Co       0.00000000       0.00000000       0.00000000       0.00000000       0.00000000      -0.12256154
Co       0.00000000       0.00000000       2.53151515       0.00000000       0.00000000       0.12256154
2
Properties=species:S:1:pos:R:3:forces:R:3 energy=-18.459913043378126 pbc="F F F"
Co       0.00000000       0.00000000       0.00000000       0.00000000       0.00000000      -0.06205293
Co       0.00000000       0.00000000       2.59030303       0.00000000       0.00000000       0.06205293
2
Properties=species:S:1:pos:R:3:forces:R:3 energy=-18.45926650737927 pbc="F F F"
Co       0.00000000       0.00000000       0.00000000       0.00000000       0.00000000       0.09073445
Co       0.00000000       0.00000000       2.64909091       0.00000000       0.00000000      -0.09073445
2
Properties=species:S:1:pos:R:3:forces:R:3 energy=-18.44926085756846 pbc="F F F"
Co       0.00000000       0.00000000       0.00000000       0.00000000       0.00000000       0.24461749
Co       0.00000000       0.00000000       2.70787879       0.00000000       0.00000000      -0.24461749
2
Properties=species:S:1:pos:R:3:forces:R:3 energy=-18.431331376827814 pbc="F F F"
Co       0.00000000       0.00000000       0.00000000       0.00000000       0.00000000       0.35815927
Co       0.00000000       0.00000000       2.76666667       0.00000000       0.00000000      -0.35815927
2
Properties=species:S:1:pos:R:3:forces:R:3 energy=-18.407792011263023 pbc="F F F"
Co       0.00000000       0.00000000       0.00000000       0.00000000       0.00000000       0.43939710
Co       0.00000000       0.00000000       2.82545455       0.00000000       0.00000000      -0.43939710
2
Properties=species:S:1:pos:R:3:forces:R:3 energy=-18.37980945980951 pbc="F F F"
Co       0.00000000       0.00000000       0.00000000       0.00000000       0.00000000       0.51305288
Co       0.00000000       0.00000000       2.88424242       0.00000000       0.00000000      -0.51305288
2
Properties=species:S:1:pos:R:3:forces:R:3 energy=-18.347294733765235 pbc="F F F"
Co       0.00000000       0.00000000       0.00000000       0.00000000       0.00000000       0.59522706
Co       0.00000000       0.00000000       2.94303030       0.00000000       0.00000000      -0.59522706
2
Properties=species:S:1:pos:R:3:forces:R:3 energy=-18.309552773872163 pbc="F F F"
Co       0.00000000       0.00000000       0.00000000       0.00000000       0.00000000       0.69123793
Co       0.00000000       0.00000000       3.00181818       0.00000000       0.00000000      -0.69123793
2
Properties=species:S:1:pos:R:3:forces:R:3 energy=-18.265740682506152 pbc="F F F"
Co       0.00000000       0.00000000       0.00000000       0.00000000       0.00000000       0.80145895
Co       0.00000000       0.00000000       3.06060606       0.00000000       0.00000000      -0.80145895
2
Properties=species:S:1:pos:R:3:forces:R:3 energy=-18.215108692672548 pbc="F F F"
Co       0.00000000       0.00000000       0.00000000       0.00000000       0.00000000       0.92233014
Co       0.00000000       0.00000000       3.11939394       0.00000000       0.00000000      -0.92233014
2
Properties=species:S:1:pos:R:3:forces:R:3 energy=-18.157257869147905 pbc="F F F"
Co       0.00000000       0.00000000       0.00000000       0.00000000       0.00000000       1.04510009
Co       0.00000000       0.00000000       3.17818182       0.00000000       0.00000000      -1.04510009
2
Properties=species:S:1:pos:R:3:forces:R:3 energy=-18.092426285218707 pbc="F F F"
Co       0.00000000       0.00000000       0.00000000       0.00000000       0.00000000       1.15790117
Co       0.00000000       0.00000000       3.23696970       0.00000000       0.00000000      -1.15790117
2
Properties=species:S:1:pos:R:3:forces:R:3 energy=-18.021515725562242 pbc="F F F"
Co       0.00000000       0.00000000       0.00000000       0.00000000       0.00000000       1.25060296
Co       0.00000000       0.00000000       3.29575758       0.00000000       0.00000000      -1.25060296
2
Properties=species:S:1:pos:R:3:forces:R:3 energy=-17.945876192281037 pbc="F F F"
Co       0.00000000       0.00000000       0.00000000       0.00000000       0.00000000       1.31840932
Co       0.00000000       0.00000000       3.35454545       0.00000000       0.00000000      -1.31840932
2
Properties=species:S:1:pos:R:3:forces:R:3 energy=-17.866972128395595 pbc="F F F"
Co       0.00000000       0.00000000       0.00000000       0.00000000       0.00000000       1.36232388
Co       0.00000000       0.00000000       3.41333333       0.00000000       0.00000000      -1.36232388
2
Properties=species:S:1:pos:R:3:forces:R:3 energy=-17.786071486755095 pbc="F F F"
Co       0.00000000       0.00000000       0.00000000       0.00000000       0.00000000       1.38736665
Co       0.00000000       0.00000000       3.47212121       0.00000000       0.00000000      -1.38736665
2
Properties=species:S:1:pos:R:3:forces:R:3 energy=-17.70409318016066 pbc="F F F"
Co       0.00000000       0.00000000       0.00000000       0.00000000       0.00000000       1.40006948
Co       0.00000000       0.00000000       3.53090909       0.00000000       0.00000000      -1.40006948
2
Properties=species:S:1:pos:R:3:forces:R:3 energy=-17.62158419159782 pbc="F F F"
Co       0.00000000       0.00000000       0.00000000       0.00000000       0.00000000       1.40623069
Co       0.00000000       0.00000000       3.58969697       0.00000000       0.00000000      -1.40623069
2
Properties=species:S:1:pos:R:3:forces:R:3 energy=-17.53881302323217 pbc="F F F"
Co       0.00000000       0.00000000       0.00000000       0.00000000       0.00000000       1.40935850
Co       0.00000000       0.00000000       3.64848485       0.00000000       0.00000000      -1.40935850
2
Properties=species:S:1:pos:R:3:forces:R:3 energy=-17.455922304890827 pbc="F F F"
Co       0.00000000       0.00000000       0.00000000       0.00000000       0.00000000       1.41013646
Co       0.00000000       0.00000000       3.70727273       0.00000000       0.00000000      -1.41013646
2
Properties=species:S:1:pos:R:3:forces:R:3 energy=-17.37309091077666 pbc="F F F"
Co       0.00000000       0.00000000       0.00000000       0.00000000       0.00000000       1.40695238
Co       0.00000000       0.00000000       3.76606061       0.00000000       0.00000000      -1.40695238
2
Properties=species:S:1:pos:R:3:forces:R:3 energy=-17.29062935065861 pbc="F F F"
Co       0.00000000       0.00000000       0.00000000       0.00000000       0.00000000       1.39709055
Co       0.00000000       0.00000000       3.82484848       0.00000000       0.00000000      -1.39709055
2
Properties=species:S:1:pos:R:3:forces:R:3 energy=-17.209006437906485 pbc="F F F"
Co       0.00000000       0.00000000       0.00000000       0.00000000       0.00000000       1.37803757
Co       0.00000000       0.00000000       3.88363636       0.00000000       0.00000000      -1.37803757
2
Properties=species:S:1:pos:R:3:forces:R:3 energy=-17.128815023739858 pbc="F F F"
Co       0.00000000       0.00000000       0.00000000       0.00000000       0.00000000       1.34837592
Co       0.00000000       0.00000000       3.94242424       0.00000000       0.00000000      -1.34837592
2
Properties=species:S:1:pos:R:3:forces:R:3 energy=-17.05068039539243 pbc="F F F"
Co       0.00000000       0.00000000       0.00000000       0.00000000       0.00000000       1.30812085
Co       0.00000000       0.00000000       4.00121212       0.00000000       0.00000000      -1.30812085
2
Properties=species:S:1:pos:R:3:forces:R:3 energy=-16.975195457936746 pbc="F F F"
Co       0.00000000       0.00000000       0.00000000       0.00000000       0.00000000       1.25851250
Co       0.00000000       0.00000000       4.06000000       0.00000000       0.00000000      -1.25851250
2
Properties=species:S:1:pos:R:3:forces:R:3 energy=-16.90285589868587 pbc="F F F"
Co       0.00000000       0.00000000       0.00000000       0.00000000       0.00000000       1.20154309
Co       0.00000000       0.00000000       4.11878788       0.00000000       0.00000000      -1.20154309
2
Properties=species:S:1:pos:R:3:forces:R:3 energy=-16.83402583591109 pbc="F F F"
Co       0.00000000       0.00000000       0.00000000       0.00000000       0.00000000       1.13936269
Co       0.00000000       0.00000000       4.17757576       0.00000000       0.00000000      -1.13936269
2
Properties=species:S:1:pos:R:3:forces:R:3 energy=-16.76895692559032 pbc="F F F"
Co       0.00000000       0.00000000       0.00000000       0.00000000       0.00000000       1.07381439
Co       0.00000000       0.00000000       4.23636364       0.00000000       0.00000000      -1.07381439
2
Properties=species:S:1:pos:R:3:forces:R:3 energy=-16.707809323236198 pbc="F F F"
Co       0.00000000       0.00000000       0.00000000       0.00000000       0.00000000       1.00614631
Co       0.00000000       0.00000000       4.29515152       0.00000000       0.00000000      -1.00614631
2
Properties=species:S:1:pos:R:3:forces:R:3 energy=-16.6506879726213 pbc="F F F"
Co       0.00000000       0.00000000       0.00000000       0.00000000       0.00000000       0.93704212
Co       0.00000000       0.00000000       4.35393939       0.00000000       0.00000000      -0.93704212
2
Properties=species:S:1:pos:R:3:forces:R:3 energy=-16.597661625411515 pbc="F F F"
Co       0.00000000       0.00000000       0.00000000       0.00000000       0.00000000       0.86679572
Co       0.00000000       0.00000000       4.41272727       0.00000000       0.00000000      -0.86679572
2
Properties=species:S:1:pos:R:3:forces:R:3 energy=-16.54879151000025 pbc="F F F"
Co       0.00000000       0.00000000       0.00000000       0.00000000       0.00000000       0.79565042
Co       0.00000000       0.00000000       4.47151515       0.00000000       0.00000000      -0.79565042
2
Properties=species:S:1:pos:R:3:forces:R:3 energy=-16.50411984940275 pbc="F F F"
Co       0.00000000       0.00000000       0.00000000       0.00000000       0.00000000       0.72402745
Co       0.00000000       0.00000000       4.53030303       0.00000000       0.00000000      -0.72402745
2
Properties=species:S:1:pos:R:3:forces:R:3 energy=-16.46365845517818 pbc="F F F"
Co       0.00000000       0.00000000       0.00000000       0.00000000       0.00000000       0.65266037
Co       0.00000000       0.00000000       4.58909091       0.00000000       0.00000000      -0.65266037
2
Properties=species:S:1:pos:R:3:forces:R:3 energy=-16.427360096609288 pbc="F F F"
Co       0.00000000       0.00000000       0.00000000       0.00000000       0.00000000       0.58258176
Co       0.00000000       0.00000000       4.64787879       0.00000000       0.00000000      -0.58258176
2
Properties=species:S:1:pos:R:3:forces:R:3 energy=-16.395110876059604 pbc="F F F"
Co       0.00000000       0.00000000       0.00000000       0.00000000       0.00000000       0.51498342
Co       0.00000000       0.00000000       4.70666667       0.00000000       0.00000000      -0.51498342
2
Properties=species:S:1:pos:R:3:forces:R:3 energy=-16.366735946267607 pbc="F F F"
Co       0.00000000       0.00000000       0.00000000       0.00000000       0.00000000       0.45113787
Co       0.00000000       0.00000000       4.76545455       0.00000000       0.00000000      -0.45113787
2
Properties=species:S:1:pos:R:3:forces:R:3 energy=-16.341969000688152 pbc="F F F"
Co       0.00000000       0.00000000       0.00000000       0.00000000       0.00000000       0.39232156
Co       0.00000000       0.00000000       4.82424242       0.00000000       0.00000000      -0.39232156
2
Properties=species:S:1:pos:R:3:forces:R:3 energy=-16.32048468258012 pbc="F F F"
Co       0.00000000       0.00000000       0.00000000       0.00000000       0.00000000       0.33983526
Co       0.00000000       0.00000000       4.88303030       0.00000000       0.00000000      -0.33983526
2
Properties=species:S:1:pos:R:3:forces:R:3 energy=-16.30186424639538 pbc="F F F"
Co       0.00000000       0.00000000       0.00000000       0.00000000       0.00000000       0.29495290
Co       0.00000000       0.00000000       4.94181818       0.00000000       0.00000000      -0.29495290
2
Properties=species:S:1:pos:R:3:forces:R:3 energy=-16.285631781563712 pbc="F F F"
Co       0.00000000       0.00000000       0.00000000       0.00000000       0.00000000       0.25886545
Co       0.00000000       0.00000000       5.00060606       0.00000000       0.00000000      -0.25886545
2
Properties=species:S:1:pos:R:3:forces:R:3 energy=-16.27124087213974 pbc="F F F"
Co       0.00000000       0.00000000       0.00000000       0.00000000       0.00000000       0.23228109
Co       0.00000000       0.00000000       5.05939394       0.00000000       0.00000000      -0.23228109
2
Properties=species:S:1:pos:R:3:forces:R:3 energy=-16.258141315991224 pbc="F F F"
Co       0.00000000       0.00000000       0.00000000       0.00000000       0.00000000       0.21485871
Co       0.00000000       0.00000000       5.11818182       0.00000000       0.00000000      -0.21485871
2
Properties=species:S:1:pos:R:3:forces:R:3 energy=-16.24584206572003 pbc="F F F"
Co       0.00000000       0.00000000       0.00000000       0.00000000       0.00000000       0.20443028
Co       0.00000000       0.00000000       5.17696970       0.00000000       0.00000000      -0.20443028
2
Properties=species:S:1:pos:R:3:forces:R:3 energy=-16.23405618557431 pbc="F F F"
Co       0.00000000       0.00000000       0.00000000       0.00000000       0.00000000       0.19644719
Co       0.00000000       0.00000000       5.23575758       0.00000000       0.00000000      -0.19644719
2
Properties=species:S:1:pos:R:3:forces:R:3 energy=-16.22282479267969 pbc="F F F"
Co       0.00000000       0.00000000       0.00000000       0.00000000       0.00000000       0.18440408
Co       0.00000000       0.00000000       5.29454545       0.00000000       0.00000000      -0.18440408
2
Properties=species:S:1:pos:R:3:forces:R:3 energy=-16.212557115320312 pbc="F F F"
Co       0.00000000       0.00000000       0.00000000       0.00000000       0.00000000       0.16335675
Co       0.00000000       0.00000000       5.35333333       0.00000000       0.00000000      -0.16335675
2
Properties=species:S:1:pos:R:3:forces:R:3 energy=-16.20370431969159 pbc="F F F"
Co       0.00000000       0.00000000       0.00000000       0.00000000       0.00000000       0.13845590
Co       0.00000000       0.00000000       5.41212121       0.00000000       0.00000000      -0.13845590
2
Properties=species:S:1:pos:R:3:forces:R:3 energy=-16.19599082781032 pbc="F F F"
Co       0.00000000       0.00000000       0.00000000       0.00000000       0.00000000       0.12763879
Co       0.00000000       0.00000000       5.47090909       0.00000000       0.00000000      -0.12763879
2
Properties=species:S:1:pos:R:3:forces:R:3 energy=-16.18834946528531 pbc="F F F"
Co       0.00000000       0.00000000       0.00000000       0.00000000       0.00000000       0.13311642
Co       0.00000000       0.00000000       5.52969697       0.00000000       0.00000000      -0.13311642
2
Properties=species:S:1:pos:R:3:forces:R:3 energy=-16.180544611044105 pbc="F F F"
Co       0.00000000       0.00000000       0.00000000       0.00000000       0.00000000       0.12935384
Co       0.00000000       0.00000000       5.58848485       0.00000000       0.00000000      -0.12935384
2
Properties=species:S:1:pos:R:3:forces:R:3 energy=-16.173420132064443 pbc="F F F"
Co       0.00000000       0.00000000       0.00000000       0.00000000       0.00000000       0.11249874
Co       0.00000000       0.00000000       5.64727273       0.00000000       0.00000000      -0.11249874
2
Properties=species:S:1:pos:R:3:forces:R:3 energy=-16.16714652364502 pbc="F F F"
Co       0.00000000       0.00000000       0.00000000       0.00000000       0.00000000       0.10407800
Co       0.00000000       0.00000000       5.70606061       0.00000000       0.00000000      -0.10407800
2
Properties=species:S:1:pos:R:3:forces:R:3 energy=-16.160810845288573 pbc="F F F"
Co       0.00000000       0.00000000       0.00000000       0.00000000       0.00000000       0.11206163
Co       0.00000000       0.00000000       5.76484848       0.00000000       0.00000000      -0.11206163
2
Properties=species:S:1:pos:R:3:forces:R:3 energy=-16.154276362652148 pbc="F F F"
Co       0.00000000       0.00000000       0.00000000       0.00000000       0.00000000       0.10474178
Co       0.00000000       0.00000000       5.82363636       0.00000000       0.00000000      -0.10474178
2
Properties=species:S:1:pos:R:3:forces:R:3 energy=-16.149183903995414 pbc="F F F"
Co       0.00000000       0.00000000       0.00000000       0.00000000       0.00000000       0.06542281
Co       0.00000000       0.00000000       5.88242424       0.00000000       0.00000000      -0.06542281
2
Properties=species:S:1:pos:R:3:forces:R:3 energy=-16.14665924850684 pbc="F F F"
Co       0.00000000       0.00000000       0.00000000       0.00000000       0.00000000       0.02246450
Co       0.00000000       0.00000000       5.94121212       0.00000000       0.00000000      -0.02246450
2
Properties=species:S:1:pos:R:3:forces:R:3 energy=-16.146023733285304 pbc="F F F"
Co       0.00000000       0.00000000       0.00000000       0.00000000       0.00000000       0.00492875
Co       0.00000000       0.00000000       6.00000000       0.00000000       0.00000000      -0.00492875
