2
Properties=species:S:1:pos:R:3:forces:R:3 energy=1340306.3629044457 pbc="F F F"
Cr       0.00000000       0.00000000       0.00000000       0.00000000       0.00000000 -364509.25000000
Cr       0.00000000       0.00000000       0.10000000       0.00000000       0.00000000  364509.25000000
2
Properties=species:S:1:pos:R:3:forces:R:3 energy=1319054.7379044457 pbc="F F F"
Cr       0.00000000       0.00000000       0.00000000       0.00000000       0.00000000 -471436.59375000
Cr       0.00000000       0.00000000       0.15959596       0.00000000       0.00000000  471436.59375000
2
Properties=species:S:1:pos:R:3:forces:R:3 energy=1271416.9879044457 pbc="F F F"
Cr       0.00000000       0.00000000       0.00000000       0.00000000       0.00000000 -1235011.25000000
Cr       0.00000000       0.00000000       0.21919192       0.00000000       0.00000000 1235011.25000000
2
Properties=species:S:1:pos:R:3:forces:R:3 energy=1158875.3629044457 pbc="F F F"
Cr       0.00000000       0.00000000       0.00000000       0.00000000       0.00000000 -2640658.50000000
Cr       0.00000000       0.00000000       0.27878788       0.00000000       0.00000000 2640658.50000000
2
Properties=species:S:1:pos:R:3:forces:R:3 energy=949441.9879044456 pbc="F F F"
Cr       0.00000000       0.00000000       0.00000000       0.00000000       0.00000000 -4385273.50000000
Cr       0.00000000       0.00000000       0.33838384       0.00000000       0.00000000 4385273.50000000
2
Properties=species:S:1:pos:R:3:forces:R:3 energy=648088.5504044456 pbc="F F F"
Cr       0.00000000       0.00000000       0.00000000       0.00000000       0.00000000 -5517856.00000000
Cr       0.00000000       0.00000000       0.39797980       0.00000000       0.00000000 5517856.00000000
2
Properties=species:S:1:pos:R:3:forces:R:3 energy=327860.36290444725 pbc="F F F"
Cr       0.00000000       0.00000000       0.00000000       0.00000000       0.00000000 -4878870.50000000
Cr       0.00000000       0.00000000       0.45757576       0.00000000       0.00000000 4878870.50000000
2
Properties=species:S:1:pos:R:3:forces:R:3 energy=98556.9722794504 pbc="F F F"
Cr       0.00000000       0.00000000       0.00000000       0.00000000       0.00000000 -2601610.50000000
Cr       0.00000000       0.00000000       0.51717172       0.00000000       0.00000000 2601610.50000000
2
Properties=species:S:1:pos:R:3:forces:R:3 energy=10828.092396641081 pbc="F F F"
Cr       0.00000000       0.00000000       0.00000000       0.00000000       0.00000000 -572522.56250000
Cr       0.00000000       0.00000000       0.57676768       0.00000000       0.00000000  572522.56250000
2
Properties=species:S:1:pos:R:3:forces:R:3 energy=-195.30860432756282 pbc="F F F"
Cr       0.00000000       0.00000000       0.00000000       0.00000000       0.00000000   13207.06835938
Cr       0.00000000       0.00000000       0.63636364       0.00000000       0.00000000  -13207.06835938
2
Properties=species:S:1:pos:R:3:forces:R:3 energy=20.407378121450293 pbc="F F F"
Cr       0.00000000       0.00000000       0.00000000       0.00000000       0.00000000      35.70196533
Cr       0.00000000       0.00000000       0.69595960       0.00000000       0.00000000     -35.70196533
2
Properties=species:S:1:pos:R:3:forces:R:3 energy=-77.55740648173516 pbc="F F F"
Cr       0.00000000       0.00000000       0.00000000       0.00000000       0.00000000     122.14529419
Cr       0.00000000       0.00000000       0.75555556       0.00000000       0.00000000    -122.14529419
2
Properties=species:S:1:pos:R:3:forces:R:3 energy=-74.03376296194828 pbc="F F F"
Cr       0.00000000       0.00000000       0.00000000       0.00000000       0.00000000      22.12088394
Cr       0.00000000       0.00000000       0.81515152       0.00000000       0.00000000     -22.12088394
2
Properties=species:S:1:pos:R:3:forces:R:3 energy=-107.21917246824894 pbc="F F F"
Cr       0.00000000       0.00000000       0.00000000       0.00000000       0.00000000   -1061.18493652
Cr       0.00000000       0.00000000       0.87474747       0.00000000       0.00000000    1061.18493652
2
Properties=species:S:1:pos:R:3:forces:R:3 energy=-155.85367863839798 pbc="F F F"
Cr       0.00000000       0.00000000       0.00000000       0.00000000       0.00000000    -530.13598633
Cr       0.00000000       0.00000000       0.93434343       0.00000000       0.00000000     530.13598633
2
Properties=species:S:1:pos:R:3:forces:R:3 energy=-182.38616452349237 pbc="F F F"
Cr       0.00000000       0.00000000       0.00000000       0.00000000       0.00000000    -360.88507080
Cr       0.00000000       0.00000000       0.99393939       0.00000000       0.00000000     360.88507080
2
Properties=species:S:1:pos:R:3:forces:R:3 energy=-195.49408983478526 pbc="F F F"
Cr       0.00000000       0.00000000       0.00000000       0.00000000       0.00000000     -30.33431435
Cr       0.00000000       0.00000000       1.05353535       0.00000000       0.00000000      30.33431435
2
Properties=species:S:1:pos:R:3:forces:R:3 energy=-180.73723850069592 pbc="F F F"
Cr       0.00000000       0.00000000       0.00000000       0.00000000       0.00000000     544.82257080
Cr       0.00000000       0.00000000       1.11313131       0.00000000       0.00000000    -544.82257080
2
Properties=species:S:1:pos:R:3:forces:R:3 energy=-134.3640998923957 pbc="F F F"
Cr       0.00000000       0.00000000       0.00000000       0.00000000       0.00000000     926.03442383
Cr       0.00000000       0.00000000       1.17272727       0.00000000       0.00000000    -926.03442383
2
Properties=species:S:1:pos:R:3:forces:R:3 energy=-82.39994255348466 pbc="F F F"
Cr       0.00000000       0.00000000       0.00000000       0.00000000       0.00000000     740.09222412
Cr       0.00000000       0.00000000       1.23232323       0.00000000       0.00000000    -740.09222412
2
Properties=species:S:1:pos:R:3:forces:R:3 energy=-49.33055291086375 pbc="F F F"
Cr       0.00000000       0.00000000       0.00000000       0.00000000       0.00000000     385.26724243
Cr       0.00000000       0.00000000       1.29191919       0.00000000       0.00000000    -385.26724243
2
Properties=species:S:1:pos:R:3:forces:R:3 energy=-33.0068068055619 pbc="F F F"
Cr       0.00000000       0.00000000       0.00000000       0.00000000       0.00000000     188.38681030
Cr       0.00000000       0.00000000       1.35151515       0.00000000       0.00000000    -188.38681030
2
Properties=species:S:1:pos:R:3:forces:R:3 energy=-25.18088622699202 pbc="F F F"
Cr       0.00000000       0.00000000       0.00000000       0.00000000       0.00000000      84.73682404
Cr       0.00000000       0.00000000       1.41111111       0.00000000       0.00000000     -84.73682404
2
Properties=species:S:1:pos:R:3:forces:R:3 energy=-21.965881674451722 pbc="F F F"
Cr       0.00000000       0.00000000       0.00000000       0.00000000       0.00000000      29.20497513
Cr       0.00000000       0.00000000       1.47070707       0.00000000       0.00000000     -29.20497513
2
Properties=species:S:1:pos:R:3:forces:R:3 energy=-21.14125785457354 pbc="F F F"
Cr       0.00000000       0.00000000       0.00000000       0.00000000       0.00000000       1.91870689
Cr       0.00000000       0.00000000       1.53030303       0.00000000       0.00000000      -1.91870689
2
Properties=species:S:1:pos:R:3:forces:R:3 energy=-21.389332482115183 pbc="F F F"
Cr       0.00000000       0.00000000       0.00000000       0.00000000       0.00000000      -7.63684273
Cr       0.00000000       0.00000000       1.58989899       0.00000000       0.00000000       7.63684273
2
Properties=species:S:1:pos:R:3:forces:R:3 energy=-21.807412772572278 pbc="F F F"
Cr       0.00000000       0.00000000       0.00000000       0.00000000       0.00000000      -5.17325735
Cr       0.00000000       0.00000000       1.64949495       0.00000000       0.00000000       5.17325735
2
Properties=species:S:1:pos:R:3:forces:R:3 energy=-21.96939898119331 pbc="F F F"
Cr       0.00000000       0.00000000       0.00000000       0.00000000       0.00000000      -0.70593029
Cr       0.00000000       0.00000000       1.70909091       0.00000000       0.00000000       0.70593029
2
Properties=species:S:1:pos:R:3:forces:R:3 energy=-21.986808187205828 pbc="F F F"
Cr       0.00000000       0.00000000       0.00000000       0.00000000       0.00000000      -0.72548896
Cr       0.00000000       0.00000000       1.76868687       0.00000000       0.00000000       0.72548896
2
Properties=species:S:1:pos:R:3:forces:R:3 energy=-22.112175534127267 pbc="F F F"
Cr       0.00000000       0.00000000       0.00000000       0.00000000       0.00000000      -3.44471335
Cr       0.00000000       0.00000000       1.82828283       0.00000000       0.00000000       3.44471335
2
Properties=species:S:1:pos:R:3:forces:R:3 energy=-22.3495890640444 pbc="F F F"
Cr       0.00000000       0.00000000       0.00000000       0.00000000       0.00000000      -3.98482561
Cr       0.00000000       0.00000000       1.88787879       0.00000000       0.00000000       3.98482561
2
Properties=species:S:1:pos:R:3:forces:R:3 energy=-22.535717926355883 pbc="F F F"
Cr       0.00000000       0.00000000       0.00000000       0.00000000       0.00000000      -1.98564398
Cr       0.00000000       0.00000000       1.94747475       0.00000000       0.00000000       1.98564398
2
Properties=species:S:1:pos:R:3:forces:R:3 energy=-22.570556190664647 pbc="F F F"
Cr       0.00000000       0.00000000       0.00000000       0.00000000       0.00000000       0.82142788
Cr       0.00000000       0.00000000       2.00707071       0.00000000       0.00000000      -0.82142788
2
Properties=species:S:1:pos:R:3:forces:R:3 energy=-22.448406408768154 pbc="F F F"
Cr       0.00000000       0.00000000       0.00000000       0.00000000       0.00000000       3.11460471
Cr       0.00000000       0.00000000       2.06666667       0.00000000       0.00000000      -3.11460471
2
Properties=species:S:1:pos:R:3:forces:R:3 energy=-22.230914508048198 pbc="F F F"
Cr       0.00000000       0.00000000       0.00000000       0.00000000       0.00000000       3.79181623
Cr       0.00000000       0.00000000       2.12626263       0.00000000       0.00000000      -3.79181623
2
Properties=species:S:1:pos:R:3:forces:R:3 energy=-22.05283146133907 pbc="F F F"
Cr       0.00000000       0.00000000       0.00000000       0.00000000       0.00000000       1.68731141
Cr       0.00000000       0.00000000       2.18585859       0.00000000       0.00000000      -1.68731141
2
Properties=species:S:1:pos:R:3:forces:R:3 energy=-22.0822208098193 pbc="F F F"
Cr       0.00000000       0.00000000       0.00000000       0.00000000       0.00000000      -2.96886349
Cr       0.00000000       0.00000000       2.24545455       0.00000000       0.00000000       2.96886349
2
Properties=species:S:1:pos:R:3:forces:R:3 energy=-22.409413152047566 pbc="F F F"
Cr       0.00000000       0.00000000       0.00000000       0.00000000       0.00000000      -7.70726061
Cr       0.00000000       0.00000000       2.30505051       0.00000000       0.00000000       7.70726061
2
Properties=species:S:1:pos:R:3:forces:R:3 energy=-22.92731761207013 pbc="F F F"
Cr       0.00000000       0.00000000       0.00000000       0.00000000       0.00000000      -8.96800518
Cr       0.00000000       0.00000000       2.36464646       0.00000000       0.00000000       8.96800518
2
Properties=species:S:1:pos:R:3:forces:R:3 energy=-23.42811351079205 pbc="F F F"
Cr       0.00000000       0.00000000       0.00000000       0.00000000       0.00000000      -7.63969994
Cr       0.00000000       0.00000000       2.42424242       0.00000000       0.00000000       7.63969994
2
Properties=species:S:1:pos:R:3:forces:R:3 energy=-23.814190637167552 pbc="F F F"
Cr       0.00000000       0.00000000       0.00000000       0.00000000       0.00000000      -5.12763119
Cr       0.00000000       0.00000000       2.48383838       0.00000000       0.00000000       5.12763119
2
Properties=species:S:1:pos:R:3:forces:R:3 energy=-24.029900480886074 pbc="F F F"
Cr       0.00000000       0.00000000       0.00000000       0.00000000       0.00000000      -2.16020417
Cr       0.00000000       0.00000000       2.54343434       0.00000000       0.00000000       2.16020417
2
Properties=species:S:1:pos:R:3:forces:R:3 energy=-24.08845137021218 pbc="F F F"
Cr       0.00000000       0.00000000       0.00000000       0.00000000       0.00000000      -0.00374265
Cr       0.00000000       0.00000000       2.60303030       0.00000000       0.00000000       0.00374265
2
Properties=species:S:1:pos:R:3:forces:R:3 energy=-24.055644133965483 pbc="F F F"
Cr       0.00000000       0.00000000       0.00000000       0.00000000       0.00000000       0.90326059
Cr       0.00000000       0.00000000       2.66262626       0.00000000       0.00000000      -0.90326059
2
Properties=species:S:1:pos:R:3:forces:R:3 energy=-24.000607730557878 pbc="F F F"
Cr       0.00000000       0.00000000       0.00000000       0.00000000       0.00000000       0.82075888
Cr       0.00000000       0.00000000       2.72222222       0.00000000       0.00000000      -0.82075888
2
Properties=species:S:1:pos:R:3:forces:R:3 energy=-23.967009800934964 pbc="F F F"
Cr       0.00000000       0.00000000       0.00000000       0.00000000       0.00000000       0.27249366
Cr       0.00000000       0.00000000       2.78181818       0.00000000       0.00000000      -0.27249366
2
Properties=species:S:1:pos:R:3:forces:R:3 energy=-23.9681567287338 pbc="F F F"
Cr       0.00000000       0.00000000       0.00000000       0.00000000       0.00000000      -0.28434876
Cr       0.00000000       0.00000000       2.84141414       0.00000000       0.00000000       0.28434876
2
Properties=species:S:1:pos:R:3:forces:R:3 energy=-23.995802941056567 pbc="F F F"
Cr       0.00000000       0.00000000       0.00000000       0.00000000       0.00000000      -0.59094393
Cr       0.00000000       0.00000000       2.90101010       0.00000000       0.00000000       0.59094393
2
Properties=species:S:1:pos:R:3:forces:R:3 energy=-24.032180215700926 pbc="F F F"
Cr       0.00000000       0.00000000       0.00000000       0.00000000       0.00000000      -0.58007574
Cr       0.00000000       0.00000000       2.96060606       0.00000000       0.00000000       0.58007574
2
Properties=species:S:1:pos:R:3:forces:R:3 energy=-24.06029697667811 pbc="F F F"
Cr       0.00000000       0.00000000       0.00000000       0.00000000       0.00000000      -0.33834392
Cr       0.00000000       0.00000000       3.02020202       0.00000000       0.00000000       0.33834392
2
Properties=species:S:1:pos:R:3:forces:R:3 energy=-24.07129583617024 pbc="F F F"
Cr       0.00000000       0.00000000       0.00000000       0.00000000       0.00000000      -0.03406969
Cr       0.00000000       0.00000000       3.07979798       0.00000000       0.00000000       0.03406969
2
Properties=species:S:1:pos:R:3:forces:R:3 energy=-24.06577936459494 pbc="F F F"
Cr       0.00000000       0.00000000       0.00000000       0.00000000       0.00000000       0.20287749
Cr       0.00000000       0.00000000       3.13939394       0.00000000       0.00000000      -0.20287749
2
Properties=species:S:1:pos:R:3:forces:R:3 energy=-24.048920210345223 pbc="F F F"
Cr       0.00000000       0.00000000       0.00000000       0.00000000       0.00000000       0.35141954
Cr       0.00000000       0.00000000       3.19898990       0.00000000       0.00000000      -0.35141954
2
Properties=species:S:1:pos:R:3:forces:R:3 energy=-24.024655361162864 pbc="F F F"
Cr       0.00000000       0.00000000       0.00000000       0.00000000       0.00000000       0.46095181
Cr       0.00000000       0.00000000       3.25858586       0.00000000       0.00000000      -0.46095181
2
Properties=species:S:1:pos:R:3:forces:R:3 energy=-23.993955385069253 pbc="F F F"
Cr       0.00000000       0.00000000       0.00000000       0.00000000       0.00000000       0.57001078
Cr       0.00000000       0.00000000       3.31818182       0.00000000       0.00000000      -0.57001078
2
Properties=species:S:1:pos:R:3:forces:R:3 energy=-23.95680460987454 pbc="F F F"
Cr       0.00000000       0.00000000       0.00000000       0.00000000       0.00000000       0.67389148
Cr       0.00000000       0.00000000       3.37777778       0.00000000       0.00000000      -0.67389148
2
Properties=species:S:1:pos:R:3:forces:R:3 energy=-23.914203899430696 pbc="F F F"
Cr       0.00000000       0.00000000       0.00000000       0.00000000       0.00000000       0.74957228
Cr       0.00000000       0.00000000       3.43737374       0.00000000       0.00000000      -0.74957228
2
Properties=species:S:1:pos:R:3:forces:R:3 energy=-23.868252742482635 pbc="F F F"
Cr       0.00000000       0.00000000       0.00000000       0.00000000       0.00000000       0.78609473
Cr       0.00000000       0.00000000       3.49696970       0.00000000       0.00000000      -0.78609473
2
Properties=species:S:1:pos:R:3:forces:R:3 energy=-23.82116312808248 pbc="F F F"
Cr       0.00000000       0.00000000       0.00000000       0.00000000       0.00000000       0.78983068
Cr       0.00000000       0.00000000       3.55656566       0.00000000       0.00000000      -0.78983068
2
Properties=species:S:1:pos:R:3:forces:R:3 energy=-23.774500457263645 pbc="F F F"
Cr       0.00000000       0.00000000       0.00000000       0.00000000       0.00000000       0.77388221
Cr       0.00000000       0.00000000       3.61616162       0.00000000       0.00000000      -0.77388221
2
Properties=species:S:1:pos:R:3:forces:R:3 energy=-23.729091988722566 pbc="F F F"
Cr       0.00000000       0.00000000       0.00000000       0.00000000       0.00000000       0.74921370
Cr       0.00000000       0.00000000       3.67575758       0.00000000       0.00000000      -0.74921370
2
Properties=species:S:1:pos:R:3:forces:R:3 energy=-23.685229011438118 pbc="F F F"
Cr       0.00000000       0.00000000       0.00000000       0.00000000       0.00000000       0.72302192
Cr       0.00000000       0.00000000       3.73535354       0.00000000       0.00000000      -0.72302192
2
Properties=species:S:1:pos:R:3:forces:R:3 energy=-23.642840432404142 pbc="F F F"
Cr       0.00000000       0.00000000       0.00000000       0.00000000       0.00000000       0.70048511
Cr       0.00000000       0.00000000       3.79494949       0.00000000       0.00000000      -0.70048511
2
Properties=species:S:1:pos:R:3:forces:R:3 energy=-23.601584348370757 pbc="F F F"
Cr       0.00000000       0.00000000       0.00000000       0.00000000       0.00000000       0.68558919
Cr       0.00000000       0.00000000       3.85454545       0.00000000       0.00000000      -0.68558919
2
Properties=species:S:1:pos:R:3:forces:R:3 energy=-23.56093003332516 pbc="F F F"
Cr       0.00000000       0.00000000       0.00000000       0.00000000       0.00000000       0.68034506
Cr       0.00000000       0.00000000       3.91414141       0.00000000       0.00000000      -0.68034506
2
Properties=species:S:1:pos:R:3:forces:R:3 energy=-23.52031818270328 pbc="F F F"
Cr       0.00000000       0.00000000       0.00000000       0.00000000       0.00000000       0.68379325
Cr       0.00000000       0.00000000       3.97373737       0.00000000       0.00000000      -0.68379325
2
Properties=species:S:1:pos:R:3:forces:R:3 energy=-23.479330689592857 pbc="F F F"
Cr       0.00000000       0.00000000       0.00000000       0.00000000       0.00000000       0.69212544
Cr       0.00000000       0.00000000       4.03333333       0.00000000       0.00000000      -0.69212544
2
Properties=species:S:1:pos:R:3:forces:R:3 energy=-23.43783558739041 pbc="F F F"
Cr       0.00000000       0.00000000       0.00000000       0.00000000       0.00000000       0.69980419
Cr       0.00000000       0.00000000       4.09292929       0.00000000       0.00000000      -0.69980419
2
Properties=species:S:1:pos:R:3:forces:R:3 energy=-23.3960480992127 pbc="F F F"
Cr       0.00000000       0.00000000       0.00000000       0.00000000       0.00000000       0.70096868
Cr       0.00000000       0.00000000       4.15252525       0.00000000       0.00000000      -0.70096868
2
Properties=species:S:1:pos:R:3:forces:R:3 energy=-23.354517308631046 pbc="F F F"
Cr       0.00000000       0.00000000       0.00000000       0.00000000       0.00000000       0.69045413
Cr       0.00000000       0.00000000       4.21212121       0.00000000       0.00000000      -0.69045413
2
Properties=species:S:1:pos:R:3:forces:R:3 energy=-23.314063199743426 pbc="F F F"
Cr       0.00000000       0.00000000       0.00000000       0.00000000       0.00000000       0.66430324
Cr       0.00000000       0.00000000       4.27171717       0.00000000       0.00000000      -0.66430324
2
Properties=species:S:1:pos:R:3:forces:R:3 energy=-23.275700404410863 pbc="F F F"
Cr       0.00000000       0.00000000       0.00000000       0.00000000       0.00000000       0.62002331
Cr       0.00000000       0.00000000       4.33131313       0.00000000       0.00000000      -0.62002331
2
Properties=species:S:1:pos:R:3:forces:R:3 energy=-23.24053900428938 pbc="F F F"
Cr       0.00000000       0.00000000       0.00000000       0.00000000       0.00000000       0.55684876
Cr       0.00000000       0.00000000       4.39090909       0.00000000       0.00000000      -0.55684876
2
Properties=species:S:1:pos:R:3:forces:R:3 energy=-23.209675829380977 pbc="F F F"
Cr       0.00000000       0.00000000       0.00000000       0.00000000       0.00000000       0.47619888
Cr       0.00000000       0.00000000       4.45050505       0.00000000       0.00000000      -0.47619888
2
Properties=species:S:1:pos:R:3:forces:R:3 energy=-23.184051405302245 pbc="F F F"
Cr       0.00000000       0.00000000       0.00000000       0.00000000       0.00000000       0.38198012
Cr       0.00000000       0.00000000       4.51010101       0.00000000       0.00000000      -0.38198012
2
Properties=species:S:1:pos:R:3:forces:R:3 energy=-23.164291649683502 pbc="F F F"
Cr       0.00000000       0.00000000       0.00000000       0.00000000       0.00000000       0.28050676
Cr       0.00000000       0.00000000       4.56969697       0.00000000       0.00000000      -0.28050676
2
Properties=species:S:1:pos:R:3:forces:R:3 energy=-23.15060107965226 pbc="F F F"
Cr       0.00000000       0.00000000       0.00000000       0.00000000       0.00000000       0.17977916
Cr       0.00000000       0.00000000       4.62929293       0.00000000       0.00000000      -0.17977916
2
Properties=species:S:1:pos:R:3:forces:R:3 energy=-23.14268268893549 pbc="F F F"
Cr       0.00000000       0.00000000       0.00000000       0.00000000       0.00000000       0.08811911
Cr       0.00000000       0.00000000       4.68888889       0.00000000       0.00000000      -0.08811911
2
Properties=species:S:1:pos:R:3:forces:R:3 energy=-23.13977801168433 pbc="F F F"
Cr       0.00000000       0.00000000       0.00000000       0.00000000       0.00000000       0.01255755
Cr       0.00000000       0.00000000       4.74848485       0.00000000       0.00000000      -0.01255755
2
Properties=species:S:1:pos:R:3:forces:R:3 energy=-23.140777726520067 pbc="F F F"
Cr       0.00000000       0.00000000       0.00000000       0.00000000       0.00000000      -0.04255394
Cr       0.00000000       0.00000000       4.80808081       0.00000000       0.00000000       0.04255394
2
Properties=species:S:1:pos:R:3:forces:R:3 energy=-23.14442385924787 pbc="F F F"
Cr       0.00000000       0.00000000       0.00000000       0.00000000       0.00000000      -0.07639399
Cr       0.00000000       0.00000000       4.86767677       0.00000000       0.00000000       0.07639399
2
Properties=species:S:1:pos:R:3:forces:R:3 energy=-23.1495119380532 pbc="F F F"
Cr       0.00000000       0.00000000       0.00000000       0.00000000       0.00000000      -0.09163000
Cr       0.00000000       0.00000000       4.92727273       0.00000000       0.00000000       0.09163000
2
Properties=species:S:1:pos:R:3:forces:R:3 energy=-23.15508173311683 pbc="F F F"
Cr       0.00000000       0.00000000       0.00000000       0.00000000       0.00000000      -0.09357370
Cr       0.00000000       0.00000000       4.98686869       0.00000000       0.00000000       0.09357370
2
Properties=species:S:1:pos:R:3:forces:R:3 energy=-23.160527857492962 pbc="F F F"
Cr       0.00000000       0.00000000       0.00000000       0.00000000       0.00000000      -0.08858057
Cr       0.00000000       0.00000000       5.04646465       0.00000000       0.00000000       0.08858057
2
Properties=species:S:1:pos:R:3:forces:R:3 energy=-23.165609280093737 pbc="F F F"
Cr       0.00000000       0.00000000       0.00000000       0.00000000       0.00000000      -0.08199160
Cr       0.00000000       0.00000000       5.10606061       0.00000000       0.00000000       0.08199160
2
Properties=species:S:1:pos:R:3:forces:R:3 energy=-23.17031774080831 pbc="F F F"
Cr       0.00000000       0.00000000       0.00000000       0.00000000       0.00000000      -0.07610519
Cr       0.00000000       0.00000000       5.16565657       0.00000000       0.00000000       0.07610519
2
Properties=species:S:1:pos:R:3:forces:R:3 energy=-23.174660268409227 pbc="F F F"
Cr       0.00000000       0.00000000       0.00000000       0.00000000       0.00000000      -0.06911008
Cr       0.00000000       0.00000000       5.22525253       0.00000000       0.00000000       0.06911008
2
Properties=species:S:1:pos:R:3:forces:R:3 energy=-23.178437912271868 pbc="F F F"
Cr       0.00000000       0.00000000       0.00000000       0.00000000       0.00000000      -0.05629985
Cr       0.00000000       0.00000000       5.28484848       0.00000000       0.00000000       0.05629985
2
Properties=species:S:1:pos:R:3:forces:R:3 energy=-23.181198054698886 pbc="F F F"
Cr       0.00000000       0.00000000       0.00000000       0.00000000       0.00000000      -0.03512786
Cr       0.00000000       0.00000000       5.34444444       0.00000000       0.00000000       0.03512786
2
Properties=species:S:1:pos:R:3:forces:R:3 energy=-23.18261203664713 pbc="F F F"
Cr       0.00000000       0.00000000       0.00000000       0.00000000       0.00000000      -0.01377973
Cr       0.00000000       0.00000000       5.40404040       0.00000000       0.00000000       0.01377973
2
Properties=species:S:1:pos:R:3:forces:R:3 energy=-23.183215205829352 pbc="F F F"
Cr       0.00000000       0.00000000       0.00000000       0.00000000       0.00000000      -0.01053700
Cr       0.00000000       0.00000000       5.46363636       0.00000000       0.00000000       0.01053700
2
Properties=species:S:1:pos:R:3:forces:R:3 energy=-23.18415511501647 pbc="F F F"
Cr       0.00000000       0.00000000       0.00000000       0.00000000       0.00000000      -0.02020104
Cr       0.00000000       0.00000000       5.52323232       0.00000000       0.00000000       0.02020104
2
Properties=species:S:1:pos:R:3:forces:R:3 energy=-23.185175460868315 pbc="F F F"
Cr       0.00000000       0.00000000       0.00000000       0.00000000       0.00000000      -0.00940670
Cr       0.00000000       0.00000000       5.58282828       0.00000000       0.00000000       0.00940670
2
Properties=species:S:1:pos:R:3:forces:R:3 energy=-23.1849956082977 pbc="F F F"
Cr       0.00000000       0.00000000       0.00000000       0.00000000       0.00000000       0.01472299
Cr       0.00000000       0.00000000       5.64242424       0.00000000       0.00000000      -0.01472299
2
Properties=species:S:1:pos:R:3:forces:R:3 energy=-23.183795883162 pbc="F F F"
Cr       0.00000000       0.00000000       0.00000000       0.00000000       0.00000000       0.02103387
Cr       0.00000000       0.00000000       5.70202020       0.00000000       0.00000000      -0.02103387
2
Properties=species:S:1:pos:R:3:forces:R:3 energy=-23.1828990228667 pbc="F F F"
Cr       0.00000000       0.00000000       0.00000000       0.00000000       0.00000000       0.00834837
Cr       0.00000000       0.00000000       5.76161616       0.00000000       0.00000000      -0.00834837
2
Properties=species:S:1:pos:R:3:forces:R:3 energy=-23.182555732723394 pbc="F F F"
Cr       0.00000000       0.00000000       0.00000000       0.00000000       0.00000000       0.00617927
Cr       0.00000000       0.00000000       5.82121212       0.00000000       0.00000000      -0.00617927
2
Properties=species:S:1:pos:R:3:forces:R:3 energy=-23.18201527448025 pbc="F F F"
Cr       0.00000000       0.00000000       0.00000000       0.00000000       0.00000000       0.01115572
Cr       0.00000000       0.00000000       5.88080808       0.00000000       0.00000000      -0.01115572
2
Properties=species:S:1:pos:R:3:forces:R:3 energy=-23.181392733707046 pbc="F F F"
Cr       0.00000000       0.00000000       0.00000000       0.00000000       0.00000000       0.00870874
Cr       0.00000000       0.00000000       5.94040404       0.00000000       0.00000000      -0.00870874
2
Properties=species:S:1:pos:R:3:forces:R:3 energy=-23.180970954746172 pbc="F F F"
Cr       0.00000000       0.00000000       0.00000000       0.00000000       0.00000000       0.00619035
Cr       0.00000000       0.00000000       6.00000000       0.00000000       0.00000000      -0.00619035
