2
Properties=species:S:1:pos:R:3:forces:R:3 energy=1307631.3629044457 pbc="F F F"
Cr       0.00000000       0.00000000       0.00000000       0.00000000       0.00000000 -660442.06250000
Cr       0.00000000       0.00000000       0.18000000       0.00000000       0.00000000  660442.06250000
2
Properties=species:S:1:pos:R:3:forces:R:3 energy=1243469.3629044457 pbc="F F F"
Cr       0.00000000       0.00000000       0.00000000       0.00000000       0.00000000 -1630001.62500000
Cr       0.00000000       0.00000000       0.23878788       0.00000000       0.00000000 1630001.62500000
2
Properties=species:S:1:pos:R:3:forces:R:3 energy=1104183.1129044457 pbc="F F F"
Cr       0.00000000       0.00000000       0.00000000       0.00000000       0.00000000 -3185424.50000000
Cr       0.00000000       0.00000000       0.29757576       0.00000000       0.00000000 3185424.50000000
2
Properties=species:S:1:pos:R:3:forces:R:3 energy=866325.4879044456 pbc="F F F"
Cr       0.00000000       0.00000000       0.00000000       0.00000000       0.00000000 -4850590.50000000
Cr       0.00000000       0.00000000       0.35636364       0.00000000       0.00000000 4850590.50000000
2
Properties=species:S:1:pos:R:3:forces:R:3 energy=552831.2379044456 pbc="F F F"
Cr       0.00000000       0.00000000       0.00000000       0.00000000       0.00000000 -5549166.50000000
Cr       0.00000000       0.00000000       0.41515152       0.00000000       0.00000000 5549166.50000000
2
Properties=species:S:1:pos:R:3:forces:R:3 energy=251181.06602944725 pbc="F F F"
Cr       0.00000000       0.00000000       0.00000000       0.00000000       0.00000000 -4410750.00000000
Cr       0.00000000       0.00000000       0.47393939       0.00000000       0.00000000 4410750.00000000
2
Properties=species:S:1:pos:R:3:forces:R:3 energy=63221.32774820041 pbc="F F F"
Cr       0.00000000       0.00000000       0.00000000       0.00000000       0.00000000 -1949713.12500000
Cr       0.00000000       0.00000000       0.53272727       0.00000000       0.00000000 1949713.12500000
2
Properties=species:S:1:pos:R:3:forces:R:3 energy=4372.634388831748 pbc="F F F"
Cr       0.00000000       0.00000000       0.00000000       0.00000000       0.00000000 -316670.62500000
Cr       0.00000000       0.00000000       0.59151515       0.00000000       0.00000000  316670.62500000
2
Properties=species:S:1:pos:R:3:forces:R:3 energy=-71.00697621160204 pbc="F F F"
Cr       0.00000000       0.00000000       0.00000000       0.00000000       0.00000000    4517.88037109
Cr       0.00000000       0.00000000       0.65030303       0.00000000       0.00000000   -4517.88037109
2
Properties=species:S:1:pos:R:3:forces:R:3 energy=-1.6831141239170422 pbc="F F F"
Cr       0.00000000       0.00000000       0.00000000       0.00000000       0.00000000   -2440.49340820
Cr       0.00000000       0.00000000       0.70909091       0.00000000       0.00000000    2440.49340820
2
Properties=species:S:1:pos:R:3:forces:R:3 energy=-76.88892655754984 pbc="F F F"
Cr       0.00000000       0.00000000       0.00000000       0.00000000       0.00000000      25.12594032
Cr       0.00000000       0.00000000       0.76787879       0.00000000       0.00000000     -25.12594032
2
Properties=species:S:1:pos:R:3:forces:R:3 energy=-74.28261854643296 pbc="F F F"
Cr       0.00000000       0.00000000       0.00000000       0.00000000       0.00000000     -39.93936157
Cr       0.00000000       0.00000000       0.82666667       0.00000000       0.00000000      39.93936157
2
Properties=species:S:1:pos:R:3:forces:R:3 energy=-118.37510202417516 pbc="F F F"
Cr       0.00000000       0.00000000       0.00000000       0.00000000       0.00000000   -1017.68579102
Cr       0.00000000       0.00000000       0.88545455       0.00000000       0.00000000    1017.68579102
2
Properties=species:S:1:pos:R:3:forces:R:3 energy=-160.94851200133405 pbc="F F F"
Cr       0.00000000       0.00000000       0.00000000       0.00000000       0.00000000    -499.43780518
Cr       0.00000000       0.00000000       0.94424242       0.00000000       0.00000000     499.43780518
2
Properties=species:S:1:pos:R:3:forces:R:3 energy=-185.52260860103405 pbc="F F F"
Cr       0.00000000       0.00000000       0.00000000       0.00000000       0.00000000    -328.26803589
Cr       0.00000000       0.00000000       1.00303030       0.00000000       0.00000000     328.26803589
2
Properties=species:S:1:pos:R:3:forces:R:3 energy=-195.46110031620105 pbc="F F F"
Cr       0.00000000       0.00000000       0.00000000       0.00000000       0.00000000      39.41997147
Cr       0.00000000       0.00000000       1.06181818       0.00000000       0.00000000     -39.41997147
2
Properties=species:S:1:pos:R:3:forces:R:3 energy=-176.3936258099986 pbc="F F F"
Cr       0.00000000       0.00000000       0.00000000       0.00000000       0.00000000     616.76928711
Cr       0.00000000       0.00000000       1.12060606       0.00000000       0.00000000    -616.76928711
2
Properties=species:S:1:pos:R:3:forces:R:3 energy=-128.16659010301203 pbc="F F F"
Cr       0.00000000       0.00000000       0.00000000       0.00000000       0.00000000     931.83337402
Cr       0.00000000       0.00000000       1.17939394       0.00000000       0.00000000    -931.83337402
2
Properties=species:S:1:pos:R:3:forces:R:3 energy=-78.17125142548396 pbc="F F F"
Cr       0.00000000       0.00000000       0.00000000       0.00000000       0.00000000     703.38623047
Cr       0.00000000       0.00000000       1.23818182       0.00000000       0.00000000    -703.38623047
2
Properties=species:S:1:pos:R:3:forces:R:3 energy=-47.4446390334764 pbc="F F F"
Cr       0.00000000       0.00000000       0.00000000       0.00000000       0.00000000     361.83007812
Cr       0.00000000       0.00000000       1.29696970       0.00000000       0.00000000    -361.83007812
2
Properties=species:S:1:pos:R:3:forces:R:3 energy=-32.227784557878756 pbc="F F F"
Cr       0.00000000       0.00000000       0.00000000       0.00000000       0.00000000     178.92805481
Cr       0.00000000       0.00000000       1.35575758       0.00000000       0.00000000    -178.92805481
2
Properties=species:S:1:pos:R:3:forces:R:3 energy=-24.89719860455302 pbc="F F F"
Cr       0.00000000       0.00000000       0.00000000       0.00000000       0.00000000      80.49620056
Cr       0.00000000       0.00000000       1.41454545       0.00000000       0.00000000     -80.49620056
2
Properties=species:S:1:pos:R:3:forces:R:3 energy=-21.891386328805652 pbc="F F F"
Cr       0.00000000       0.00000000       0.00000000       0.00000000       0.00000000      27.52736282
Cr       0.00000000       0.00000000       1.47333333       0.00000000       0.00000000     -27.52736282
2
Properties=species:S:1:pos:R:3:forces:R:3 energy=-21.138251847785646 pbc="F F F"
Cr       0.00000000       0.00000000       0.00000000       0.00000000       0.00000000       1.38773632
Cr       0.00000000       0.00000000       1.53212121       0.00000000       0.00000000      -1.38773632
2
Properties=species:S:1:pos:R:3:forces:R:3 energy=-21.39705722665505 pbc="F F F"
Cr       0.00000000       0.00000000       0.00000000       0.00000000       0.00000000      -7.67133188
Cr       0.00000000       0.00000000       1.59090909       0.00000000       0.00000000       7.67133188
2
Properties=species:S:1:pos:R:3:forces:R:3 energy=-21.80845990221996 pbc="F F F"
Cr       0.00000000       0.00000000       0.00000000       0.00000000       0.00000000      -5.15579033
Cr       0.00000000       0.00000000       1.64969697       0.00000000       0.00000000       5.15579033
2
Properties=species:S:1:pos:R:3:forces:R:3 energy=-21.968966027308863 pbc="F F F"
Cr       0.00000000       0.00000000       0.00000000       0.00000000       0.00000000      -0.73296160
Cr       0.00000000       0.00000000       1.70848485       0.00000000       0.00000000       0.73296160
2
Properties=species:S:1:pos:R:3:forces:R:3 energy=-21.98581638809152 pbc="F F F"
Cr       0.00000000       0.00000000       0.00000000       0.00000000       0.00000000      -0.67193782
Cr       0.00000000       0.00000000       1.76727273       0.00000000       0.00000000       0.67193782
2
Properties=species:S:1:pos:R:3:forces:R:3 energy=-22.10460719217529 pbc="F F F"
Cr       0.00000000       0.00000000       0.00000000       0.00000000       0.00000000      -3.36328793
Cr       0.00000000       0.00000000       1.82606061       0.00000000       0.00000000       3.36328793
2
Properties=species:S:1:pos:R:3:forces:R:3 energy=-22.337443026768963 pbc="F F F"
Cr       0.00000000       0.00000000       0.00000000       0.00000000       0.00000000      -4.03264809
Cr       0.00000000       0.00000000       1.88484848       0.00000000       0.00000000       4.03264809
2
Properties=species:S:1:pos:R:3:forces:R:3 energy=-22.527769774935848 pbc="F F F"
Cr       0.00000000       0.00000000       0.00000000       0.00000000       0.00000000      -2.15616226
Cr       0.00000000       0.00000000       1.94363636       0.00000000       0.00000000       2.15616226
2
Properties=species:S:1:pos:R:3:forces:R:3 energy=-22.573879991323388 pbc="F F F"
Cr       0.00000000       0.00000000       0.00000000       0.00000000       0.00000000       0.60814905
Cr       0.00000000       0.00000000       2.00242424       0.00000000       0.00000000      -0.60814905
2
Properties=species:S:1:pos:R:3:forces:R:3 energy=-22.464952827955987 pbc="F F F"
Cr       0.00000000       0.00000000       0.00000000       0.00000000       0.00000000       2.95082068
Cr       0.00000000       0.00000000       2.06121212       0.00000000       0.00000000      -2.95082068
2
Properties=species:S:1:pos:R:3:forces:R:3 energy=-22.254830727851857 pbc="F F F"
Cr       0.00000000       0.00000000       0.00000000       0.00000000       0.00000000       3.84002209
Cr       0.00000000       0.00000000       2.12000000       0.00000000       0.00000000      -3.84002209
2
Properties=species:S:1:pos:R:3:forces:R:3 energy=-22.06621126143519 pbc="F F F"
Cr       0.00000000       0.00000000       0.00000000       0.00000000       0.00000000       2.09172654
Cr       0.00000000       0.00000000       2.17878788       0.00000000       0.00000000      -2.09172654
2
Properties=species:S:1:pos:R:3:forces:R:3 energy=-22.06157554089463 pbc="F F F"
Cr       0.00000000       0.00000000       0.00000000       0.00000000       0.00000000      -2.27159142
Cr       0.00000000       0.00000000       2.23757576       0.00000000       0.00000000       2.27159142
2
Properties=species:S:1:pos:R:3:forces:R:3 energy=-22.34476694534409 pbc="F F F"
Cr       0.00000000       0.00000000       0.00000000       0.00000000       0.00000000      -7.16307592
Cr       0.00000000       0.00000000       2.29636364       0.00000000       0.00000000       7.16307592
2
Properties=species:S:1:pos:R:3:forces:R:3 energy=-22.8418071279449 pbc="F F F"
Cr       0.00000000       0.00000000       0.00000000       0.00000000       0.00000000      -9.03048515
Cr       0.00000000       0.00000000       2.35515152       0.00000000       0.00000000       9.03048515
2
Properties=species:S:1:pos:R:3:forces:R:3 energy=-23.347771948814835 pbc="F F F"
Cr       0.00000000       0.00000000       0.00000000       0.00000000       0.00000000      -7.95033884
Cr       0.00000000       0.00000000       2.41393939       0.00000000       0.00000000       7.95033884
2
Properties=species:S:1:pos:R:3:forces:R:3 energy=-23.754158533052692 pbc="F F F"
Cr       0.00000000       0.00000000       0.00000000       0.00000000       0.00000000      -5.67453384
Cr       0.00000000       0.00000000       2.47272727       0.00000000       0.00000000       5.67453384
2
Properties=species:S:1:pos:R:3:forces:R:3 energy=-24.000850105726578 pbc="F F F"
Cr       0.00000000       0.00000000       0.00000000       0.00000000       0.00000000      -2.71925116
Cr       0.00000000       0.00000000       2.53151515       0.00000000       0.00000000       2.71925116
2
Properties=species:S:1:pos:R:3:forces:R:3 energy=-24.08619388360744 pbc="F F F"
Cr       0.00000000       0.00000000       0.00000000       0.00000000       0.00000000      -0.36096045
Cr       0.00000000       0.00000000       2.59030303       0.00000000       0.00000000       0.36096045
2
Properties=species:S:1:pos:R:3:forces:R:3 energy=-24.06723825516012 pbc="F F F"
Cr       0.00000000       0.00000000       0.00000000       0.00000000       0.00000000       0.80074757
Cr       0.00000000       0.00000000       2.64909091       0.00000000       0.00000000      -0.80074757
2
Properties=species:S:1:pos:R:3:forces:R:3 energy=-24.013010859491402 pbc="F F F"
Cr       0.00000000       0.00000000       0.00000000       0.00000000       0.00000000       0.90361035
Cr       0.00000000       0.00000000       2.70787879       0.00000000       0.00000000      -0.90361035
2
Properties=species:S:1:pos:R:3:forces:R:3 energy=-23.97231893074783 pbc="F F F"
Cr       0.00000000       0.00000000       0.00000000       0.00000000       0.00000000       0.42774203
Cr       0.00000000       0.00000000       2.76666667       0.00000000       0.00000000      -0.42774203
2
Properties=species:S:1:pos:R:3:forces:R:3 energy=-23.96464525694678 pbc="F F F"
Cr       0.00000000       0.00000000       0.00000000       0.00000000       0.00000000      -0.15280080
Cr       0.00000000       0.00000000       2.82545455       0.00000000       0.00000000       0.15280080
2
Properties=species:S:1:pos:R:3:forces:R:3 energy=-23.986311118976886 pbc="F F F"
Cr       0.00000000       0.00000000       0.00000000       0.00000000       0.00000000      -0.53703904
Cr       0.00000000       0.00000000       2.88424242       0.00000000       0.00000000       0.53703904
2
Properties=species:S:1:pos:R:3:forces:R:3 energy=-24.021657394829056 pbc="F F F"
Cr       0.00000000       0.00000000       0.00000000       0.00000000       0.00000000      -0.61365068
Cr       0.00000000       0.00000000       2.94303030       0.00000000       0.00000000       0.61365068
2
Properties=species:S:1:pos:R:3:forces:R:3 energy=-24.053243103431903 pbc="F F F"
Cr       0.00000000       0.00000000       0.00000000       0.00000000       0.00000000      -0.42778546
Cr       0.00000000       0.00000000       3.00181818       0.00000000       0.00000000       0.42778546
2
Properties=species:S:1:pos:R:3:forces:R:3 energy=-24.069741589663415 pbc="F F F"
Cr       0.00000000       0.00000000       0.00000000       0.00000000       0.00000000      -0.12896039
Cr       0.00000000       0.00000000       3.06060606       0.00000000       0.00000000       0.12896039
2
Properties=species:S:1:pos:R:3:forces:R:3 energy=-24.069170485979296 pbc="F F F"
Cr       0.00000000       0.00000000       0.00000000       0.00000000       0.00000000       0.13440652
Cr       0.00000000       0.00000000       3.11939394       0.00000000       0.00000000      -0.13440652
2
Properties=species:S:1:pos:R:3:forces:R:3 energy=-24.055780289817815 pbc="F F F"
Cr       0.00000000       0.00000000       0.00000000       0.00000000       0.00000000       0.30701301
Cr       0.00000000       0.00000000       3.17818182       0.00000000       0.00000000      -0.30701301
2
Properties=species:S:1:pos:R:3:forces:R:3 energy=-24.03420259010876 pbc="F F F"
Cr       0.00000000       0.00000000       0.00000000       0.00000000       0.00000000       0.42236060
Cr       0.00000000       0.00000000       3.23696970       0.00000000       0.00000000      -0.42236060
2
Properties=species:S:1:pos:R:3:forces:R:3 energy=-24.00627209626188 pbc="F F F"
Cr       0.00000000       0.00000000       0.00000000       0.00000000       0.00000000       0.52851951
Cr       0.00000000       0.00000000       3.29575758       0.00000000       0.00000000      -0.52851951
2
Properties=species:S:1:pos:R:3:forces:R:3 energy=-23.972022788924313 pbc="F F F"
Cr       0.00000000       0.00000000       0.00000000       0.00000000       0.00000000       0.63552541
Cr       0.00000000       0.00000000       3.35454545       0.00000000       0.00000000      -0.63552541
2
Properties=species:S:1:pos:R:3:forces:R:3 energy=-23.931923410189867 pbc="F F F"
Cr       0.00000000       0.00000000       0.00000000       0.00000000       0.00000000       0.72359306
Cr       0.00000000       0.00000000       3.41333333       0.00000000       0.00000000      -0.72359306
2
Properties=species:S:1:pos:R:3:forces:R:3 energy=-23.887667221558537 pbc="F F F"
Cr       0.00000000       0.00000000       0.00000000       0.00000000       0.00000000       0.77551019
Cr       0.00000000       0.00000000       3.47212121       0.00000000       0.00000000      -0.77551019
2
Properties=species:S:1:pos:R:3:forces:R:3 energy=-23.84145668959448 pbc="F F F"
Cr       0.00000000       0.00000000       0.00000000       0.00000000       0.00000000       0.79141551
Cr       0.00000000       0.00000000       3.53090909       0.00000000       0.00000000      -0.79141551
2
Properties=species:S:1:pos:R:3:forces:R:3 energy=-23.795099483453527 pbc="F F F"
Cr       0.00000000       0.00000000       0.00000000       0.00000000       0.00000000       0.78259450
Cr       0.00000000       0.00000000       3.58969697       0.00000000       0.00000000      -0.78259450
2
Properties=species:S:1:pos:R:3:forces:R:3 energy=-23.74968799437944 pbc="F F F"
Cr       0.00000000       0.00000000       0.00000000       0.00000000       0.00000000       0.76105618
Cr       0.00000000       0.00000000       3.64848485       0.00000000       0.00000000      -0.76105618
2
Properties=species:S:1:pos:R:3:forces:R:3 energy=-23.705702362624418 pbc="F F F"
Cr       0.00000000       0.00000000       0.00000000       0.00000000       0.00000000       0.73519754
Cr       0.00000000       0.00000000       3.70727273       0.00000000       0.00000000      -0.73519754
2
Properties=species:S:1:pos:R:3:forces:R:3 energy=-23.66322028738259 pbc="F F F"
Cr       0.00000000       0.00000000       0.00000000       0.00000000       0.00000000       0.71066928
Cr       0.00000000       0.00000000       3.76606061       0.00000000       0.00000000      -0.71066928
2
Properties=species:S:1:pos:R:3:forces:R:3 energy=-23.622031472459742 pbc="F F F"
Cr       0.00000000       0.00000000       0.00000000       0.00000000       0.00000000       0.69186980
Cr       0.00000000       0.00000000       3.82484848       0.00000000       0.00000000      -0.69186980
2
Properties=species:S:1:pos:R:3:forces:R:3 energy=-23.58170057352991 pbc="F F F"
Cr       0.00000000       0.00000000       0.00000000       0.00000000       0.00000000       0.68180907
Cr       0.00000000       0.00000000       3.88363636       0.00000000       0.00000000      -0.68180907
2
Properties=species:S:1:pos:R:3:forces:R:3 energy=-23.54168164222119 pbc="F F F"
Cr       0.00000000       0.00000000       0.00000000       0.00000000       0.00000000       0.68107384
Cr       0.00000000       0.00000000       3.94242424       0.00000000       0.00000000      -0.68107384
2
Properties=species:S:1:pos:R:3:forces:R:3 energy=-23.50148408445371 pbc="F F F"
Cr       0.00000000       0.00000000       0.00000000       0.00000000       0.00000000       0.68733984
Cr       0.00000000       0.00000000       4.00121212       0.00000000       0.00000000      -0.68733984
2
Properties=species:S:1:pos:R:3:forces:R:3 energy=-23.46082142412954 pbc="F F F"
Cr       0.00000000       0.00000000       0.00000000       0.00000000       0.00000000       0.69599867
Cr       0.00000000       0.00000000       4.06000000       0.00000000       0.00000000      -0.69599867
2
Properties=species:S:1:pos:R:3:forces:R:3 energy=-23.419714325301424 pbc="F F F"
Cr       0.00000000       0.00000000       0.00000000       0.00000000       0.00000000       0.70143765
Cr       0.00000000       0.00000000       4.11878788       0.00000000       0.00000000      -0.70143765
2
Properties=species:S:1:pos:R:3:forces:R:3 energy=-23.37851728713409 pbc="F F F"
Cr       0.00000000       0.00000000       0.00000000       0.00000000       0.00000000       0.69823015
Cr       0.00000000       0.00000000       4.17757576       0.00000000       0.00000000      -0.69823015
2
Properties=species:S:1:pos:R:3:forces:R:3 energy=-23.337876694905628 pbc="F F F"
Cr       0.00000000       0.00000000       0.00000000       0.00000000       0.00000000       0.68188065
Cr       0.00000000       0.00000000       4.23636364       0.00000000       0.00000000      -0.68188065
2
Properties=species:S:1:pos:R:3:forces:R:3 energy=-23.298667901261254 pbc="F F F"
Cr       0.00000000       0.00000000       0.00000000       0.00000000       0.00000000       0.64913845
Cr       0.00000000       0.00000000       4.29515152       0.00000000       0.00000000      -0.64913845
2
Properties=species:S:1:pos:R:3:forces:R:3 energy=-23.26191319755082 pbc="F F F"
Cr       0.00000000       0.00000000       0.00000000       0.00000000       0.00000000       0.59823811
Cr       0.00000000       0.00000000       4.35393939       0.00000000       0.00000000      -0.59823811
2
Properties=species:S:1:pos:R:3:forces:R:3 energy=-23.228686457484564 pbc="F F F"
Cr       0.00000000       0.00000000       0.00000000       0.00000000       0.00000000       0.52920169
Cr       0.00000000       0.00000000       4.41272727       0.00000000       0.00000000      -0.52920169
2
Properties=species:S:1:pos:R:3:forces:R:3 energy=-23.20000443726794 pbc="F F F"
Cr       0.00000000       0.00000000       0.00000000       0.00000000       0.00000000       0.44425356
Cr       0.00000000       0.00000000       4.47151515       0.00000000       0.00000000      -0.44425356
2
Properties=species:S:1:pos:R:3:forces:R:3 energy=-23.176676077636635 pbc="F F F"
Cr       0.00000000       0.00000000       0.00000000       0.00000000       0.00000000       0.34801739
Cr       0.00000000       0.00000000       4.53030303       0.00000000       0.00000000      -0.34801739
2
Properties=species:S:1:pos:R:3:forces:R:3 energy=-23.159174743176383 pbc="F F F"
Cr       0.00000000       0.00000000       0.00000000       0.00000000       0.00000000       0.24723633
Cr       0.00000000       0.00000000       4.58909091       0.00000000       0.00000000      -0.24723633
2
Properties=species:S:1:pos:R:3:forces:R:3 energy=-23.1475409364553 pbc="F F F"
Cr       0.00000000       0.00000000       0.00000000       0.00000000       0.00000000       0.14985341
Cr       0.00000000       0.00000000       4.64787879       0.00000000       0.00000000      -0.14985341
2
Properties=species:S:1:pos:R:3:forces:R:3 energy=-23.141336513737166 pbc="F F F"
Cr       0.00000000       0.00000000       0.00000000       0.00000000       0.00000000       0.06363309
Cr       0.00000000       0.00000000       4.70666667       0.00000000       0.00000000      -0.06363309
2
Properties=species:S:1:pos:R:3:forces:R:3 energy=-23.13971718323638 pbc="F F F"
Cr       0.00000000       0.00000000       0.00000000       0.00000000       0.00000000      -0.00532045
Cr       0.00000000       0.00000000       4.76545455       0.00000000       0.00000000       0.00532045
2
Properties=species:S:1:pos:R:3:forces:R:3 energy=-23.14155837587255 pbc="F F F"
Cr       0.00000000       0.00000000       0.00000000       0.00000000       0.00000000      -0.05378374
Cr       0.00000000       0.00000000       4.82424242       0.00000000       0.00000000       0.05378374
2
Properties=species:S:1:pos:R:3:forces:R:3 energy=-23.145640254920025 pbc="F F F"
Cr       0.00000000       0.00000000       0.00000000       0.00000000       0.00000000      -0.08191915
Cr       0.00000000       0.00000000       4.88303030       0.00000000       0.00000000       0.08191915
2
Properties=species:S:1:pos:R:3:forces:R:3 energy=-23.150855605921524 pbc="F F F"
Cr       0.00000000       0.00000000       0.00000000       0.00000000       0.00000000      -0.09309040
Cr       0.00000000       0.00000000       4.94181818       0.00000000       0.00000000       0.09309040
2
Properties=species:S:1:pos:R:3:forces:R:3 energy=-23.15636052198184 pbc="F F F"
Cr       0.00000000       0.00000000       0.00000000       0.00000000       0.00000000      -0.09281105
Cr       0.00000000       0.00000000       5.00060606       0.00000000       0.00000000       0.09281105
2
Properties=species:S:1:pos:R:3:forces:R:3 energy=-23.161664026978833 pbc="F F F"
Cr       0.00000000       0.00000000       0.00000000       0.00000000       0.00000000      -0.08715026
Cr       0.00000000       0.00000000       5.05939394       0.00000000       0.00000000       0.08715026
2
Properties=species:S:1:pos:R:3:forces:R:3 energy=-23.166595637965393 pbc="F F F"
Cr       0.00000000       0.00000000       0.00000000       0.00000000       0.00000000      -0.08073562
Cr       0.00000000       0.00000000       5.11818182       0.00000000       0.00000000       0.08073562
2
Properties=species:S:1:pos:R:3:forces:R:3 energy=-23.17117183334211 pbc="F F F"
Cr       0.00000000       0.00000000       0.00000000       0.00000000       0.00000000      -0.07498345
Cr       0.00000000       0.00000000       5.17696970       0.00000000       0.00000000       0.07498345
2
Properties=species:S:1:pos:R:3:forces:R:3 energy=-23.17537861986487 pbc="F F F"
Cr       0.00000000       0.00000000       0.00000000       0.00000000       0.00000000      -0.06741793
Cr       0.00000000       0.00000000       5.23575758       0.00000000       0.00000000       0.06741793
2
Properties=species:S:1:pos:R:3:forces:R:3 energy=-23.178969310924174 pbc="F F F"
Cr       0.00000000       0.00000000       0.00000000       0.00000000       0.00000000      -0.05338667
Cr       0.00000000       0.00000000       5.29454545       0.00000000       0.00000000       0.05338667
2
Properties=species:S:1:pos:R:3:forces:R:3 energy=-23.181493144694198 pbc="F F F"
Cr       0.00000000       0.00000000       0.00000000       0.00000000       0.00000000      -0.03155649
Cr       0.00000000       0.00000000       5.35333333       0.00000000       0.00000000       0.03155649
2
Properties=species:S:1:pos:R:3:forces:R:3 energy=-23.182714867569864 pbc="F F F"
Cr       0.00000000       0.00000000       0.00000000       0.00000000       0.00000000      -0.01192868
Cr       0.00000000       0.00000000       5.41212121       0.00000000       0.00000000       0.01192868
2
Properties=species:S:1:pos:R:3:forces:R:3 energy=-23.183295649709205 pbc="F F F"
Cr       0.00000000       0.00000000       0.00000000       0.00000000       0.00000000      -0.01165997
Cr       0.00000000       0.00000000       5.47090909       0.00000000       0.00000000       0.01165997
2
Properties=species:S:1:pos:R:3:forces:R:3 energy=-23.184287623390475 pbc="F F F"
Cr       0.00000000       0.00000000       0.00000000       0.00000000       0.00000000      -0.02041350
Cr       0.00000000       0.00000000       5.52969697       0.00000000       0.00000000       0.02041350
2
Properties=species:S:1:pos:R:3:forces:R:3 energy=-23.18522271176251 pbc="F F F"
Cr       0.00000000       0.00000000       0.00000000       0.00000000       0.00000000      -0.00716036
Cr       0.00000000       0.00000000       5.58848485       0.00000000       0.00000000       0.00716036
2
Properties=species:S:1:pos:R:3:forces:R:3 energy=-23.184921324074192 pbc="F F F"
Cr       0.00000000       0.00000000       0.00000000       0.00000000       0.00000000       0.01620449
Cr       0.00000000       0.00000000       5.64727273       0.00000000       0.00000000      -0.01620449
2
Properties=species:S:1:pos:R:3:forces:R:3 energy=-23.18371250235546 pbc="F F F"
Cr       0.00000000       0.00000000       0.00000000       0.00000000       0.00000000       0.02050329
Cr       0.00000000       0.00000000       5.70606061       0.00000000       0.00000000      -0.02050329
2
Properties=species:S:1:pos:R:3:forces:R:3 energy=-23.182873164879016 pbc="F F F"
Cr       0.00000000       0.00000000       0.00000000       0.00000000       0.00000000       0.00772600
Cr       0.00000000       0.00000000       5.76484848       0.00000000       0.00000000      -0.00772600
2
Properties=species:S:1:pos:R:3:forces:R:3 energy=-23.18254145250085 pbc="F F F"
Cr       0.00000000       0.00000000       0.00000000       0.00000000       0.00000000       0.00642659
Cr       0.00000000       0.00000000       5.82363636       0.00000000       0.00000000      -0.00642659
2
Properties=species:S:1:pos:R:3:forces:R:3 energy=-23.181995188889335 pbc="F F F"
Cr       0.00000000       0.00000000       0.00000000       0.00000000       0.00000000       0.01120094
Cr       0.00000000       0.00000000       5.88242424       0.00000000       0.00000000      -0.01120094
2
Properties=species:S:1:pos:R:3:forces:R:3 energy=-23.181385683399153 pbc="F F F"
Cr       0.00000000       0.00000000       0.00000000       0.00000000       0.00000000       0.00864751
Cr       0.00000000       0.00000000       5.94121212       0.00000000       0.00000000      -0.00864751
2
Properties=species:S:1:pos:R:3:forces:R:3 energy=-23.180970954746172 pbc="F F F"
Cr       0.00000000       0.00000000       0.00000000       0.00000000       0.00000000       0.00619035
Cr       0.00000000       0.00000000       6.00000000       0.00000000       0.00000000      -0.00619035
