2
Properties=species:S:1:pos:R:3:forces:R:3 energy=-2347.437700675514 pbc="F F F"
Dy       0.00000000       0.00000000       0.00000000       0.00000000       0.00000000 -218313.18750000
Dy       0.00000000       0.00000000       0.18000000       0.00000000       0.00000000  218313.18750000
2
Properties=species:S:1:pos:R:3:forces:R:3 energy=-9959.25288622239 pbc="F F F"
Dy       0.00000000       0.00000000       0.00000000       0.00000000       0.00000000  -71171.89062500
Dy       0.00000000       0.00000000       0.23878788       0.00000000       0.00000000   71171.89062500
2
Properties=species:S:1:pos:R:3:forces:R:3 energy=-12543.74214403489 pbc="F F F"
Dy       0.00000000       0.00000000       0.00000000       0.00000000       0.00000000  -24308.55078125
Dy       0.00000000       0.00000000       0.29757576       0.00000000       0.00000000   24308.55078125
2
Properties=species:S:1:pos:R:3:forces:R:3 energy=-13313.42671434739 pbc="F F F"
Dy       0.00000000       0.00000000       0.00000000       0.00000000       0.00000000   -4100.84570312
Dy       0.00000000       0.00000000       0.35636364       0.00000000       0.00000000    4100.84570312
2
Properties=species:S:1:pos:R:3:forces:R:3 energy=-13173.51655809739 pbc="F F F"
Dy       0.00000000       0.00000000       0.00000000       0.00000000       0.00000000    8220.76367188
Dy       0.00000000       0.00000000       0.41515152       0.00000000       0.00000000   -8220.76367188
2
Properties=species:S:1:pos:R:3:forces:R:3 energy=-12385.958940906721 pbc="F F F"
Dy       0.00000000       0.00000000       0.00000000       0.00000000       0.00000000   18418.32812500
Dy       0.00000000       0.00000000       0.47393939       0.00000000       0.00000000  -18418.32812500
2
Properties=species:S:1:pos:R:3:forces:R:3 energy=-11020.176714344221 pbc="F F F"
Dy       0.00000000       0.00000000       0.00000000       0.00000000       0.00000000   27921.93164062
Dy       0.00000000       0.00000000       0.53272727       0.00000000       0.00000000  -27921.93164062
2
Properties=species:S:1:pos:R:3:forces:R:3 energy=-9130.052690900386 pbc="F F F"
Dy       0.00000000       0.00000000       0.00000000       0.00000000       0.00000000   36004.07812500
Dy       0.00000000       0.00000000       0.59151515       0.00000000       0.00000000  -36004.07812500
2
Properties=species:S:1:pos:R:3:forces:R:3 energy=-7074.094683084718 pbc="F F F"
Dy       0.00000000       0.00000000       0.00000000       0.00000000       0.00000000   37144.43359375
Dy       0.00000000       0.00000000       0.65030303       0.00000000       0.00000000  -37144.43359375
2
Properties=species:S:1:pos:R:3:forces:R:3 energy=-4810.148394015882 pbc="F F F"
Dy       0.00000000       0.00000000       0.00000000       0.00000000       0.00000000   38749.08593750
Dy       0.00000000       0.00000000       0.70909091       0.00000000       0.00000000  -38749.08593750
2
Properties=species:S:1:pos:R:3:forces:R:3 energy=-2671.736040487586 pbc="F F F"
Dy       0.00000000       0.00000000       0.00000000       0.00000000       0.00000000   32652.76953125
Dy       0.00000000       0.00000000       0.76787879       0.00000000       0.00000000  -32652.76953125
2
Properties=species:S:1:pos:R:3:forces:R:3 energy=-1106.0716117608092 pbc="F F F"
Dy       0.00000000       0.00000000       0.00000000       0.00000000       0.00000000   20073.97851562
Dy       0.00000000       0.00000000       0.82666667       0.00000000       0.00000000  -20073.97851562
2
Properties=species:S:1:pos:R:3:forces:R:3 energy=-308.4141410323416 pbc="F F F"
Dy       0.00000000       0.00000000       0.00000000       0.00000000       0.00000000    7513.33642578
Dy       0.00000000       0.00000000       0.88545455       0.00000000       0.00000000   -7513.33642578
2
Properties=species:S:1:pos:R:3:forces:R:3 energy=-82.89023047503464 pbc="F F F"
Dy       0.00000000       0.00000000       0.00000000       0.00000000       0.00000000    2267.44067383
Dy       0.00000000       0.00000000       0.94424242       0.00000000       0.00000000   -2267.44067383
2
Properties=species:S:1:pos:R:3:forces:R:3 energy=-61.83486009987459 pbc="F F F"
Dy       0.00000000       0.00000000       0.00000000       0.00000000       0.00000000     -37.98703384
Dy       0.00000000       0.00000000       1.00303030       0.00000000       0.00000000      37.98703384
2
Properties=species:S:1:pos:R:3:forces:R:3 energy=-62.26468486561971 pbc="F F F"
Dy       0.00000000       0.00000000       0.00000000       0.00000000       0.00000000      -8.56306934
Dy       0.00000000       0.00000000       1.06181818       0.00000000       0.00000000       8.56306934
2
Properties=species:S:1:pos:R:3:forces:R:3 energy=-63.008058657273764 pbc="F F F"
Dy       0.00000000       0.00000000       0.00000000       0.00000000       0.00000000     -15.20763016
Dy       0.00000000       0.00000000       1.12060606       0.00000000       0.00000000      15.20763016
2
Properties=species:S:1:pos:R:3:forces:R:3 energy=-63.83961677710687 pbc="F F F"
Dy       0.00000000       0.00000000       0.00000000       0.00000000       0.00000000     -12.13205338
Dy       0.00000000       0.00000000       1.17939394       0.00000000       0.00000000      12.13205338
2
Properties=species:S:1:pos:R:3:forces:R:3 energy=-64.40435967971489 pbc="F F F"
Dy       0.00000000       0.00000000       0.00000000       0.00000000       0.00000000      -7.27170849
Dy       0.00000000       0.00000000       1.23818182       0.00000000       0.00000000       7.27170849
2
Properties=species:S:1:pos:R:3:forces:R:3 energy=-64.76333777380123 pbc="F F F"
Dy       0.00000000       0.00000000       0.00000000       0.00000000       0.00000000      -5.72556591
Dy       0.00000000       0.00000000       1.29696970       0.00000000       0.00000000       5.72556591
2
Properties=species:S:1:pos:R:3:forces:R:3 energy=-65.14561599443648 pbc="F F F"
Dy       0.00000000       0.00000000       0.00000000       0.00000000       0.00000000      -7.54040003
Dy       0.00000000       0.00000000       1.35575758       0.00000000       0.00000000       7.54040003
2
Properties=species:S:1:pos:R:3:forces:R:3 energy=-65.6521998831486 pbc="F F F"
Dy       0.00000000       0.00000000       0.00000000       0.00000000       0.00000000      -9.57196617
Dy       0.00000000       0.00000000       1.41454545       0.00000000       0.00000000       9.57196617
2
Properties=species:S:1:pos:R:3:forces:R:3 energy=-66.2515876635824 pbc="F F F"
Dy       0.00000000       0.00000000       0.00000000       0.00000000       0.00000000     -10.63802910
Dy       0.00000000       0.00000000       1.47333333       0.00000000       0.00000000      10.63802910
2
Properties=species:S:1:pos:R:3:forces:R:3 energy=-66.88132509943378 pbc="F F F"
Dy       0.00000000       0.00000000       0.00000000       0.00000000       0.00000000     -10.60356331
Dy       0.00000000       0.00000000       1.53212121       0.00000000       0.00000000      10.60356331
2
Properties=species:S:1:pos:R:3:forces:R:3 energy=-67.4784391524027 pbc="F F F"
Dy       0.00000000       0.00000000       0.00000000       0.00000000       0.00000000      -9.56787395
Dy       0.00000000       0.00000000       1.59090909       0.00000000       0.00000000       9.56787395
2
Properties=species:S:1:pos:R:3:forces:R:3 energy=-67.9950706147555 pbc="F F F"
Dy       0.00000000       0.00000000       0.00000000       0.00000000       0.00000000      -7.97079706
Dy       0.00000000       0.00000000       1.64969697       0.00000000       0.00000000       7.97079706
2
Properties=species:S:1:pos:R:3:forces:R:3 energy=-68.41795958295778 pbc="F F F"
Dy       0.00000000       0.00000000       0.00000000       0.00000000       0.00000000      -6.48056269
Dy       0.00000000       0.00000000       1.70848485       0.00000000       0.00000000       6.48056269
2
Properties=species:S:1:pos:R:3:forces:R:3 energy=-68.76646943815508 pbc="F F F"
Dy       0.00000000       0.00000000       0.00000000       0.00000000       0.00000000      -5.45493221
Dy       0.00000000       0.00000000       1.76727273       0.00000000       0.00000000       5.45493221
2
Properties=species:S:1:pos:R:3:forces:R:3 energy=-69.06675372579359 pbc="F F F"
Dy       0.00000000       0.00000000       0.00000000       0.00000000       0.00000000      -4.80506897
Dy       0.00000000       0.00000000       1.82606061       0.00000000       0.00000000       4.80506897
2
Properties=species:S:1:pos:R:3:forces:R:3 energy=-69.33414750353856 pbc="F F F"
Dy       0.00000000       0.00000000       0.00000000       0.00000000       0.00000000      -4.29177380
Dy       0.00000000       0.00000000       1.88484848       0.00000000       0.00000000       4.29177380
2
Properties=species:S:1:pos:R:3:forces:R:3 energy=-69.56872703999272 pbc="F F F"
Dy       0.00000000       0.00000000       0.00000000       0.00000000       0.00000000      -3.64958787
Dy       0.00000000       0.00000000       1.94363636       0.00000000       0.00000000       3.64958787
2
Properties=species:S:1:pos:R:3:forces:R:3 energy=-69.75841496876706 pbc="F F F"
Dy       0.00000000       0.00000000       0.00000000       0.00000000       0.00000000      -2.77225924
Dy       0.00000000       0.00000000       2.00242424       0.00000000       0.00000000       2.77225924
2
Properties=species:S:1:pos:R:3:forces:R:3 energy=-69.89365925939804 pbc="F F F"
Dy       0.00000000       0.00000000       0.00000000       0.00000000       0.00000000      -1.84645998
Dy       0.00000000       0.00000000       2.06121212       0.00000000       0.00000000       1.84645998
2
Properties=species:S:1:pos:R:3:forces:R:3 energy=-69.98026583994226 pbc="F F F"
Dy       0.00000000       0.00000000       0.00000000       0.00000000       0.00000000      -1.15704584
Dy       0.00000000       0.00000000       2.12000000       0.00000000       0.00000000       1.15704584
2
Properties=species:S:1:pos:R:3:forces:R:3 energy=-70.03702587111633 pbc="F F F"
Dy       0.00000000       0.00000000       0.00000000       0.00000000       0.00000000      -0.83447582
Dy       0.00000000       0.00000000       2.17878788       0.00000000       0.00000000       0.83447582
2
Properties=species:S:1:pos:R:3:forces:R:3 energy=-70.0845386706373 pbc="F F F"
Dy       0.00000000       0.00000000       0.00000000       0.00000000       0.00000000      -0.82459283
Dy       0.00000000       0.00000000       2.23757576       0.00000000       0.00000000       0.82459283
2
Properties=species:S:1:pos:R:3:forces:R:3 energy=-70.13791802155423 pbc="F F F"
Dy       0.00000000       0.00000000       0.00000000       0.00000000       0.00000000      -1.01715672
Dy       0.00000000       0.00000000       2.29636364       0.00000000       0.00000000       1.01715672
2
Properties=species:S:1:pos:R:3:forces:R:3 energy=-70.20643358753743 pbc="F F F"
Dy       0.00000000       0.00000000       0.00000000       0.00000000       0.00000000      -1.32767999
Dy       0.00000000       0.00000000       2.35515152       0.00000000       0.00000000       1.32767999
2
Properties=species:S:1:pos:R:3:forces:R:3 energy=-70.29502915288673 pbc="F F F"
Dy       0.00000000       0.00000000       0.00000000       0.00000000       0.00000000      -1.68924487
Dy       0.00000000       0.00000000       2.41393939       0.00000000       0.00000000       1.68924487
2
Properties=species:S:1:pos:R:3:forces:R:3 energy=-70.40464307610864 pbc="F F F"
Dy       0.00000000       0.00000000       0.00000000       0.00000000       0.00000000      -2.03047347
Dy       0.00000000       0.00000000       2.47272727       0.00000000       0.00000000       2.03047347
2
Properties=species:S:1:pos:R:3:forces:R:3 energy=-70.53197175334343 pbc="F F F"
Dy       0.00000000       0.00000000       0.00000000       0.00000000       0.00000000      -2.28103757
Dy       0.00000000       0.00000000       2.53151515       0.00000000       0.00000000       2.28103757
2
Properties=species:S:1:pos:R:3:forces:R:3 energy=-70.67007236587557 pbc="F F F"
Dy       0.00000000       0.00000000       0.00000000       0.00000000       0.00000000      -2.39159703
Dy       0.00000000       0.00000000       2.59030303       0.00000000       0.00000000       2.39159703
2
Properties=species:S:1:pos:R:3:forces:R:3 energy=-70.81007947172853 pbc="F F F"
Dy       0.00000000       0.00000000       0.00000000       0.00000000       0.00000000      -2.34557152
Dy       0.00000000       0.00000000       2.64909091       0.00000000       0.00000000       2.34557152
2
Properties=species:S:1:pos:R:3:forces:R:3 energy=-70.94303607935926 pbc="F F F"
Dy       0.00000000       0.00000000       0.00000000       0.00000000       0.00000000      -2.15607738
Dy       0.00000000       0.00000000       2.70787879       0.00000000       0.00000000       2.15607738
2
Properties=species:S:1:pos:R:3:forces:R:3 energy=-71.0613966225417 pbc="F F F"
Dy       0.00000000       0.00000000       0.00000000       0.00000000       0.00000000      -1.85532761
Dy       0.00000000       0.00000000       2.76666667       0.00000000       0.00000000       1.85532761
2
Properties=species:S:1:pos:R:3:forces:R:3 energy=-71.15980516811241 pbc="F F F"
Dy       0.00000000       0.00000000       0.00000000       0.00000000       0.00000000      -1.48461723
Dy       0.00000000       0.00000000       2.82545455       0.00000000       0.00000000       1.48461723
2
Properties=species:S:1:pos:R:3:forces:R:3 energy=-71.23541584103747 pbc="F F F"
Dy       0.00000000       0.00000000       0.00000000       0.00000000       0.00000000      -1.08674848
Dy       0.00000000       0.00000000       2.88424242       0.00000000       0.00000000       1.08674848
2
Properties=species:S:1:pos:R:3:forces:R:3 energy=-71.28779363911569 pbc="F F F"
Dy       0.00000000       0.00000000       0.00000000       0.00000000       0.00000000      -0.69950241
Dy       0.00000000       0.00000000       2.94303030       0.00000000       0.00000000       0.69950241
2
Properties=species:S:1:pos:R:3:forces:R:3 energy=-71.31841856985149 pbc="F F F"
Dy       0.00000000       0.00000000       0.00000000       0.00000000       0.00000000      -0.35042110
Dy       0.00000000       0.00000000       3.00181818       0.00000000       0.00000000       0.35042110
2
Properties=species:S:1:pos:R:3:forces:R:3 energy=-71.33005231567407 pbc="F F F"
Dy       0.00000000       0.00000000       0.00000000       0.00000000       0.00000000      -0.05483427
Dy       0.00000000       0.00000000       3.06060606       0.00000000       0.00000000       0.05483427
2
Properties=species:S:1:pos:R:3:forces:R:3 energy=-71.32601353015599 pbc="F F F"
Dy       0.00000000       0.00000000       0.00000000       0.00000000       0.00000000       0.18253314
Dy       0.00000000       0.00000000       3.11939394       0.00000000       0.00000000      -0.18253314
2
Properties=species:S:1:pos:R:3:forces:R:3 energy=-71.30968951874931 pbc="F F F"
Dy       0.00000000       0.00000000       0.00000000       0.00000000       0.00000000       0.36387485
Dy       0.00000000       0.00000000       3.17818182       0.00000000       0.00000000      -0.36387485
2
Properties=species:S:1:pos:R:3:forces:R:3 energy=-71.28422341460286 pbc="F F F"
Dy       0.00000000       0.00000000       0.00000000       0.00000000       0.00000000       0.49453923
Dy       0.00000000       0.00000000       3.23696970       0.00000000       0.00000000      -0.49453923
2
Properties=species:S:1:pos:R:3:forces:R:3 energy=-71.25241501544029 pbc="F F F"
Dy       0.00000000       0.00000000       0.00000000       0.00000000       0.00000000       0.58063322
Dy       0.00000000       0.00000000       3.29575758       0.00000000       0.00000000      -0.58063322
2
Properties=species:S:1:pos:R:3:forces:R:3 energy=-71.21670558179177 pbc="F F F"
Dy       0.00000000       0.00000000       0.00000000       0.00000000       0.00000000       0.62845409
Dy       0.00000000       0.00000000       3.35454545       0.00000000       0.00000000      -0.62845409
2
Properties=species:S:1:pos:R:3:forces:R:3 energy=-71.17913953796591 pbc="F F F"
Dy       0.00000000       0.00000000       0.00000000       0.00000000       0.00000000       0.64505064
Dy       0.00000000       0.00000000       3.41333333       0.00000000       0.00000000      -0.64505064
2
Properties=species:S:1:pos:R:3:forces:R:3 energy=-71.1413188445702 pbc="F F F"
Dy       0.00000000       0.00000000       0.00000000       0.00000000       0.00000000       0.63854313
Dy       0.00000000       0.00000000       3.47212121       0.00000000       0.00000000      -0.63854313
2
Properties=species:S:1:pos:R:3:forces:R:3 energy=-71.1043495452319 pbc="F F F"
Dy       0.00000000       0.00000000       0.00000000       0.00000000       0.00000000       0.61739635
Dy       0.00000000       0.00000000       3.53090909       0.00000000       0.00000000      -0.61739635
2
Properties=species:S:1:pos:R:3:forces:R:3 energy=-71.0688646421105 pbc="F F F"
Dy       0.00000000       0.00000000       0.00000000       0.00000000       0.00000000       0.58900291
Dy       0.00000000       0.00000000       3.58969697       0.00000000       0.00000000      -0.58900291
2
Properties=species:S:1:pos:R:3:forces:R:3 energy=-71.03513092642788 pbc="F F F"
Dy       0.00000000       0.00000000       0.00000000       0.00000000       0.00000000       0.55851454
Dy       0.00000000       0.00000000       3.64848485       0.00000000       0.00000000      -0.55851454
2
Properties=species:S:1:pos:R:3:forces:R:3 energy=-71.00318630440225 pbc="F F F"
Dy       0.00000000       0.00000000       0.00000000       0.00000000       0.00000000       0.52846378
Dy       0.00000000       0.00000000       3.70727273       0.00000000       0.00000000      -0.52846378
2
Properties=species:S:1:pos:R:3:forces:R:3 energy=-70.97298472723371 pbc="F F F"
Dy       0.00000000       0.00000000       0.00000000       0.00000000       0.00000000       0.49921057
Dy       0.00000000       0.00000000       3.76606061       0.00000000       0.00000000      -0.49921057
2
Properties=species:S:1:pos:R:3:forces:R:3 energy=-70.94449541124706 pbc="F F F"
Dy       0.00000000       0.00000000       0.00000000       0.00000000       0.00000000       0.46984136
Dy       0.00000000       0.00000000       3.82484848       0.00000000       0.00000000      -0.46984136
2
Properties=species:S:1:pos:R:3:forces:R:3 energy=-70.91776384136986 pbc="F F F"
Dy       0.00000000       0.00000000       0.00000000       0.00000000       0.00000000       0.43918771
Dy       0.00000000       0.00000000       3.88363636       0.00000000       0.00000000      -0.43918771
2
Properties=species:S:1:pos:R:3:forces:R:3 energy=-70.89288889878793 pbc="F F F"
Dy       0.00000000       0.00000000       0.00000000       0.00000000       0.00000000       0.40683132
Dy       0.00000000       0.00000000       3.94242424       0.00000000       0.00000000      -0.40683132
2
Properties=species:S:1:pos:R:3:forces:R:3 energy=-70.8699465574965 pbc="F F F"
Dy       0.00000000       0.00000000       0.00000000       0.00000000       0.00000000       0.37386611
Dy       0.00000000       0.00000000       4.00121212       0.00000000       0.00000000      -0.37386611
2
Properties=species:S:1:pos:R:3:forces:R:3 energy=-70.84889072117839 pbc="F F F"
Dy       0.00000000       0.00000000       0.00000000       0.00000000       0.00000000       0.34318638
Dy       0.00000000       0.00000000       4.06000000       0.00000000       0.00000000      -0.34318638
2
Properties=species:S:1:pos:R:3:forces:R:3 energy=-70.82946927768927 pbc="F F F"
Dy       0.00000000       0.00000000       0.00000000       0.00000000       0.00000000       0.31906226
Dy       0.00000000       0.00000000       4.11878788       0.00000000       0.00000000      -0.31906226
2
Properties=species:S:1:pos:R:3:forces:R:3 energy=-70.81115545351385 pbc="F F F"
Dy       0.00000000       0.00000000       0.00000000       0.00000000       0.00000000       0.30606636
Dy       0.00000000       0.00000000       4.17757576       0.00000000       0.00000000      -0.30606636
2
Properties=species:S:1:pos:R:3:forces:R:3 energy=-70.79319358696527 pbc="F F F"
Dy       0.00000000       0.00000000       0.00000000       0.00000000       0.00000000       0.30770385
Dy       0.00000000       0.00000000       4.23636364       0.00000000       0.00000000      -0.30770385
2
Properties=species:S:1:pos:R:3:forces:R:3 energy=-70.77466778640027 pbc="F F F"
Dy       0.00000000       0.00000000       0.00000000       0.00000000       0.00000000       0.32514676
Dy       0.00000000       0.00000000       4.29515152       0.00000000       0.00000000      -0.32514676
2
Properties=species:S:1:pos:R:3:forces:R:3 energy=-70.75469267141801 pbc="F F F"
Dy       0.00000000       0.00000000       0.00000000       0.00000000       0.00000000       0.35646990
Dy       0.00000000       0.00000000       4.35393939       0.00000000       0.00000000      -0.35646990
2
Properties=species:S:1:pos:R:3:forces:R:3 energy=-70.73258121953984 pbc="F F F"
Dy       0.00000000       0.00000000       0.00000000       0.00000000       0.00000000       0.39653927
Dy       0.00000000       0.00000000       4.41272727       0.00000000       0.00000000      -0.39653927
2
Properties=species:S:1:pos:R:3:forces:R:3 energy=-70.70804313680276 pbc="F F F"
Dy       0.00000000       0.00000000       0.00000000       0.00000000       0.00000000       0.43765682
Dy       0.00000000       0.00000000       4.47151515       0.00000000       0.00000000      -0.43765682
2
Properties=species:S:1:pos:R:3:forces:R:3 energy=-70.68127641049371 pbc="F F F"
Dy       0.00000000       0.00000000       0.00000000       0.00000000       0.00000000       0.47089309
Dy       0.00000000       0.00000000       4.53030303       0.00000000       0.00000000      -0.47089309
2
Properties=species:S:1:pos:R:3:forces:R:3 energy=-70.65299781722435 pbc="F F F"
Dy       0.00000000       0.00000000       0.00000000       0.00000000       0.00000000       0.48794606
Dy       0.00000000       0.00000000       4.58909091       0.00000000       0.00000000      -0.48794606
2
Properties=species:S:1:pos:R:3:forces:R:3 energy=-70.62433613041446 pbc="F F F"
Dy       0.00000000       0.00000000       0.00000000       0.00000000       0.00000000       0.48314631
Dy       0.00000000       0.00000000       4.64787879       0.00000000       0.00000000      -0.48314631
2
Properties=species:S:1:pos:R:3:forces:R:3 energy=-70.59664901482326 pbc="F F F"
Dy       0.00000000       0.00000000       0.00000000       0.00000000       0.00000000       0.45502609
Dy       0.00000000       0.00000000       4.70666667       0.00000000       0.00000000      -0.45502609
2
Properties=species:S:1:pos:R:3:forces:R:3 energy=-70.571233093718 pbc="F F F"
Dy       0.00000000       0.00000000       0.00000000       0.00000000       0.00000000       0.40688956
Dy       0.00000000       0.00000000       4.76545455       0.00000000       0.00000000      -0.40688956
2
Properties=species:S:1:pos:R:3:forces:R:3 energy=-70.54906458113828 pbc="F F F"
Dy       0.00000000       0.00000000       0.00000000       0.00000000       0.00000000       0.34599501
Dy       0.00000000       0.00000000       4.82424242       0.00000000       0.00000000      -0.34599501
2
Properties=species:S:1:pos:R:3:forces:R:3 energy=-70.53062379631824 pbc="F F F"
Dy       0.00000000       0.00000000       0.00000000       0.00000000       0.00000000       0.28155658
Dy       0.00000000       0.00000000       4.88303030       0.00000000       0.00000000      -0.28155658
2
Properties=species:S:1:pos:R:3:forces:R:3 energy=-70.51585700404266 pbc="F F F"
Dy       0.00000000       0.00000000       0.00000000       0.00000000       0.00000000       0.22211200
Dy       0.00000000       0.00000000       4.94181818       0.00000000       0.00000000      -0.22211200
2
Properties=species:S:1:pos:R:3:forces:R:3 energy=-70.50429087773965 pbc="F F F"
Dy       0.00000000       0.00000000       0.00000000       0.00000000       0.00000000       0.17347643
Dy       0.00000000       0.00000000       5.00060606       0.00000000       0.00000000      -0.17347643
2
Properties=species:S:1:pos:R:3:forces:R:3 energy=-70.49520799139405 pbc="F F F"
Dy       0.00000000       0.00000000       0.00000000       0.00000000       0.00000000       0.13776359
Dy       0.00000000       0.00000000       5.05939394       0.00000000       0.00000000      -0.13776359
2
Properties=species:S:1:pos:R:3:forces:R:3 energy=-70.48786040774823 pbc="F F F"
Dy       0.00000000       0.00000000       0.00000000       0.00000000       0.00000000       0.11401273
Dy       0.00000000       0.00000000       5.11818182       0.00000000       0.00000000      -0.11401273
2
Properties=species:S:1:pos:R:3:forces:R:3 energy=-70.48161468431543 pbc="F F F"
Dy       0.00000000       0.00000000       0.00000000       0.00000000       0.00000000       0.09982947
Dy       0.00000000       0.00000000       5.17696970       0.00000000       0.00000000      -0.09982947
2
Properties=species:S:1:pos:R:3:forces:R:3 energy=-70.4759747298853 pbc="F F F"
Dy       0.00000000       0.00000000       0.00000000       0.00000000       0.00000000       0.09307535
Dy       0.00000000       0.00000000       5.23575758       0.00000000       0.00000000      -0.09307535
2
Properties=species:S:1:pos:R:3:forces:R:3 energy=-70.470551315456 pbc="F F F"
Dy       0.00000000       0.00000000       0.00000000       0.00000000       0.00000000       0.09242392
Dy       0.00000000       0.00000000       5.29454545       0.00000000       0.00000000      -0.09242392
2
Properties=species:S:1:pos:R:3:forces:R:3 energy=-70.46500866530481 pbc="F F F"
Dy       0.00000000       0.00000000       0.00000000       0.00000000       0.00000000       0.09704246
Dy       0.00000000       0.00000000       5.35333333       0.00000000       0.00000000      -0.09704246
2
Properties=species:S:1:pos:R:3:forces:R:3 energy=-70.4590415656366 pbc="F F F"
Dy       0.00000000       0.00000000       0.00000000       0.00000000       0.00000000       0.10681247
Dy       0.00000000       0.00000000       5.41212121       0.00000000       0.00000000      -0.10681247
2
Properties=species:S:1:pos:R:3:forces:R:3 energy=-70.45236012163394 pbc="F F F"
Dy       0.00000000       0.00000000       0.00000000       0.00000000       0.00000000       0.12095372
Dy       0.00000000       0.00000000       5.47090909       0.00000000       0.00000000      -0.12095372
2
Properties=species:S:1:pos:R:3:forces:R:3 energy=-70.44484233267642 pbc="F F F"
Dy       0.00000000       0.00000000       0.00000000       0.00000000       0.00000000       0.13359636
Dy       0.00000000       0.00000000       5.52969697       0.00000000       0.00000000      -0.13359636
2
Properties=species:S:1:pos:R:3:forces:R:3 energy=-70.4369003254529 pbc="F F F"
Dy       0.00000000       0.00000000       0.00000000       0.00000000       0.00000000       0.13392437
Dy       0.00000000       0.00000000       5.58848485       0.00000000       0.00000000      -0.13392437
2
Properties=species:S:1:pos:R:3:forces:R:3 energy=-70.4293887980593 pbc="F F F"
Dy       0.00000000       0.00000000       0.00000000       0.00000000       0.00000000       0.12033913
Dy       0.00000000       0.00000000       5.64727273       0.00000000       0.00000000      -0.12033913
2
Properties=species:S:1:pos:R:3:forces:R:3 energy=-70.42266658863223 pbc="F F F"
Dy       0.00000000       0.00000000       0.00000000       0.00000000       0.00000000       0.11114740
Dy       0.00000000       0.00000000       5.70606061       0.00000000       0.00000000      -0.11114740
2
Properties=species:S:1:pos:R:3:forces:R:3 energy=-70.41588717016782 pbc="F F F"
Dy       0.00000000       0.00000000       0.00000000       0.00000000       0.00000000       0.12178583
Dy       0.00000000       0.00000000       5.76484848       0.00000000       0.00000000      -0.12178583
2
Properties=species:S:1:pos:R:3:forces:R:3 energy=-70.40844822281154 pbc="F F F"
Dy       0.00000000       0.00000000       0.00000000       0.00000000       0.00000000       0.12614363
Dy       0.00000000       0.00000000       5.82363636       0.00000000       0.00000000      -0.12614363
2
Properties=species:S:1:pos:R:3:forces:R:3 energy=-70.401990522554 pbc="F F F"
Dy       0.00000000       0.00000000       0.00000000       0.00000000       0.00000000       0.08741067
Dy       0.00000000       0.00000000       5.88242424       0.00000000       0.00000000      -0.08741067
2
Properties=species:S:1:pos:R:3:forces:R:3 energy=-70.39852877441685 pbc="F F F"
Dy       0.00000000       0.00000000       0.00000000       0.00000000       0.00000000       0.03141701
Dy       0.00000000       0.00000000       5.94121212       0.00000000       0.00000000      -0.03141701
2
Properties=species:S:1:pos:R:3:forces:R:3 energy=-70.39763631676952 pbc="F F F"
Dy       0.00000000       0.00000000       0.00000000       0.00000000       0.00000000       0.00708159
Dy       0.00000000       0.00000000       6.00000000       0.00000000       0.00000000      -0.00708159
