2
Properties=species:S:1:pos:R:3:forces:R:3 energy=845968.4086186709 pbc="F F F"
Er       0.00000000       0.00000000       0.00000000       0.00000000       0.00000000 -309009.40625000
Er       0.00000000       0.00000000       0.18000000       0.00000000       0.00000000  309009.40625000
2
Properties=species:S:1:pos:R:3:forces:R:3 energy=829642.4086186709 pbc="F F F"
Er       0.00000000       0.00000000       0.00000000       0.00000000       0.00000000 -294268.75000000
Er       0.00000000       0.00000000       0.23878788       0.00000000       0.00000000  294268.75000000
2
Properties=species:S:1:pos:R:3:forces:R:3 energy=807218.2211186709 pbc="F F F"
Er       0.00000000       0.00000000       0.00000000       0.00000000       0.00000000 -498526.43750000
Er       0.00000000       0.00000000       0.29757576       0.00000000       0.00000000  498526.43750000
2
Properties=species:S:1:pos:R:3:forces:R:3 energy=767822.5961186709 pbc="F F F"
Er       0.00000000       0.00000000       0.00000000       0.00000000       0.00000000 -867099.75000000
Er       0.00000000       0.00000000       0.35636364       0.00000000       0.00000000  867099.75000000
2
Properties=species:S:1:pos:R:3:forces:R:3 energy=702657.8461186709 pbc="F F F"
Er       0.00000000       0.00000000       0.00000000       0.00000000       0.00000000 -1366628.50000000
Er       0.00000000       0.00000000       0.41515152       0.00000000       0.00000000 1366628.50000000
2
Properties=species:S:1:pos:R:3:forces:R:3 energy=606161.408618674 pbc="F F F"
Er       0.00000000       0.00000000       0.00000000       0.00000000       0.00000000 -1912978.75000000
Er       0.00000000       0.00000000       0.47393939       0.00000000       0.00000000 1912978.75000000
2
Properties=species:S:1:pos:R:3:forces:R:3 energy=479888.06486867403 pbc="F F F"
Er       0.00000000       0.00000000       0.00000000       0.00000000       0.00000000 -2348277.75000000
Er       0.00000000       0.00000000       0.53272727       0.00000000       0.00000000 2348277.75000000
2
Properties=species:S:1:pos:R:3:forces:R:3 energy=336199.59611867403 pbc="F F F"
Er       0.00000000       0.00000000       0.00000000       0.00000000       0.00000000 -2472878.75000000
Er       0.00000000       0.00000000       0.59151515       0.00000000       0.00000000 2472878.75000000
2
Properties=species:S:1:pos:R:3:forces:R:3 energy=197995.04924368038 pbc="F F F"
Er       0.00000000       0.00000000       0.00000000       0.00000000       0.00000000 -2152403.50000000
Er       0.00000000       0.00000000       0.65030303       0.00000000       0.00000000 2152403.50000000
2
Properties=species:S:1:pos:R:3:forces:R:3 energy=90654.0179936867 pbc="F F F"
Er       0.00000000       0.00000000       0.00000000       0.00000000       0.00000000 -1456556.87500000
Er       0.00000000       0.00000000       0.70909091       0.00000000       0.00000000 1456556.87500000
2
Properties=species:S:1:pos:R:3:forces:R:3 energy=28174.36955619938 pbc="F F F"
Er       0.00000000       0.00000000       0.00000000       0.00000000       0.00000000 -690735.12500000
Er       0.00000000       0.00000000       0.76787879       0.00000000       0.00000000  690735.12500000
2
Properties=species:S:1:pos:R:3:forces:R:3 energy=4308.324146058969 pbc="F F F"
Er       0.00000000       0.00000000       0.00000000       0.00000000       0.00000000 -183513.17187500
Er       0.00000000       0.00000000       0.82666667       0.00000000       0.00000000  183513.17187500
2
Properties=species:S:1:pos:R:3:forces:R:3 energy=-43.01913089639514 pbc="F F F"
Er       0.00000000       0.00000000       0.00000000       0.00000000       0.00000000    -601.73443604
Er       0.00000000       0.00000000       0.88545455       0.00000000       0.00000000     601.73443604
2
Properties=species:S:1:pos:R:3:forces:R:3 energy=-53.381492772675905 pbc="F F F"
Er       0.00000000       0.00000000       0.00000000       0.00000000       0.00000000    -275.11361694
Er       0.00000000       0.00000000       0.94424242       0.00000000       0.00000000     275.11361694
2
Properties=species:S:1:pos:R:3:forces:R:3 energy=-76.62296687993772 pbc="F F F"
Er       0.00000000       0.00000000       0.00000000       0.00000000       0.00000000     -25.38240242
Er       0.00000000       0.00000000       1.00303030       0.00000000       0.00000000      25.38240242
2
Properties=species:S:1:pos:R:3:forces:R:3 energy=-77.27302938395208 pbc="F F F"
Er       0.00000000       0.00000000       0.00000000       0.00000000       0.00000000       0.78134251
Er       0.00000000       0.00000000       1.06181818       0.00000000       0.00000000      -0.78134251
2
Properties=species:S:1:pos:R:3:forces:R:3 energy=-76.85882947882278 pbc="F F F"
Er       0.00000000       0.00000000       0.00000000       0.00000000       0.00000000      12.05915070
Er       0.00000000       0.00000000       1.12060606       0.00000000       0.00000000     -12.05915070
2
Properties=species:S:1:pos:R:3:forces:R:3 energy=-75.85244357422982 pbc="F F F"
Er       0.00000000       0.00000000       0.00000000       0.00000000       0.00000000      22.59285164
Er       0.00000000       0.00000000       1.17939394       0.00000000       0.00000000     -22.59285164
2
Properties=species:S:1:pos:R:3:forces:R:3 energy=-74.22516225855209 pbc="F F F"
Er       0.00000000       0.00000000       0.00000000       0.00000000       0.00000000      31.69231224
Er       0.00000000       0.00000000       1.23818182       0.00000000       0.00000000     -31.69231224
2
Properties=species:S:1:pos:R:3:forces:R:3 energy=-72.3015933682394 pbc="F F F"
Er       0.00000000       0.00000000       0.00000000       0.00000000       0.00000000      32.43717194
Er       0.00000000       0.00000000       1.29696970       0.00000000       0.00000000     -32.43717194
2
Properties=species:S:1:pos:R:3:forces:R:3 energy=-70.4965547070147 pbc="F F F"
Er       0.00000000       0.00000000       0.00000000       0.00000000       0.00000000      28.73160744
Er       0.00000000       0.00000000       1.35575758       0.00000000       0.00000000     -28.73160744
2
Properties=species:S:1:pos:R:3:forces:R:3 energy=-68.9272948036986 pbc="F F F"
Er       0.00000000       0.00000000       0.00000000       0.00000000       0.00000000      24.69179344
Er       0.00000000       0.00000000       1.41454545       0.00000000       0.00000000     -24.69179344
2
Properties=species:S:1:pos:R:3:forces:R:3 energy=-67.59373735801013 pbc="F F F"
Er       0.00000000       0.00000000       0.00000000       0.00000000       0.00000000      20.61373329
Er       0.00000000       0.00000000       1.47333333       0.00000000       0.00000000     -20.61373329
2
Properties=species:S:1:pos:R:3:forces:R:3 energy=-66.51594002916502 pbc="F F F"
Er       0.00000000       0.00000000       0.00000000       0.00000000       0.00000000      15.94069004
Er       0.00000000       0.00000000       1.53212121       0.00000000       0.00000000     -15.94069004
2
Properties=species:S:1:pos:R:3:forces:R:3 energy=-65.7271669709839 pbc="F F F"
Er       0.00000000       0.00000000       0.00000000       0.00000000       0.00000000      10.90591240
Er       0.00000000       0.00000000       1.59090909       0.00000000       0.00000000     -10.90591240
2
Properties=species:S:1:pos:R:3:forces:R:3 energy=-65.22132227822932 pbc="F F F"
Er       0.00000000       0.00000000       0.00000000       0.00000000       0.00000000       6.48754263
Er       0.00000000       0.00000000       1.64969697       0.00000000       0.00000000      -6.48754263
2
Properties=species:S:1:pos:R:3:forces:R:3 energy=-64.93928576000738 pbc="F F F"
Er       0.00000000       0.00000000       0.00000000       0.00000000       0.00000000       3.30927229
Er       0.00000000       0.00000000       1.70848485       0.00000000       0.00000000      -3.30927229
2
Properties=species:S:1:pos:R:3:forces:R:3 energy=-64.8149257991786 pbc="F F F"
Er       0.00000000       0.00000000       0.00000000       0.00000000       0.00000000       1.00482070
Er       0.00000000       0.00000000       1.76727273       0.00000000       0.00000000      -1.00482070
2
Properties=species:S:1:pos:R:3:forces:R:3 energy=-64.81703053004436 pbc="F F F"
Er       0.00000000       0.00000000       0.00000000       0.00000000       0.00000000      -1.06628537
Er       0.00000000       0.00000000       1.82606061       0.00000000       0.00000000       1.06628537
2
Properties=species:S:1:pos:R:3:forces:R:3 energy=-64.93758906300427 pbc="F F F"
Er       0.00000000       0.00000000       0.00000000       0.00000000       0.00000000      -2.98034334
Er       0.00000000       0.00000000       1.88484848       0.00000000       0.00000000       2.98034334
2
Properties=species:S:1:pos:R:3:forces:R:3 energy=-65.15649028873136 pbc="F F F"
Er       0.00000000       0.00000000       0.00000000       0.00000000       0.00000000      -4.34579706
Er       0.00000000       0.00000000       1.94363636       0.00000000       0.00000000       4.34579706
2
Properties=species:S:1:pos:R:3:forces:R:3 energy=-65.43412236547684 pbc="F F F"
Er       0.00000000       0.00000000       0.00000000       0.00000000       0.00000000      -4.99074268
Er       0.00000000       0.00000000       2.00242424       0.00000000       0.00000000       4.99074268
2
Properties=species:S:1:pos:R:3:forces:R:3 energy=-65.73353609751196 pbc="F F F"
Er       0.00000000       0.00000000       0.00000000       0.00000000       0.00000000      -5.13876152
Er       0.00000000       0.00000000       2.06121212       0.00000000       0.00000000       5.13876152
2
Properties=species:S:1:pos:R:3:forces:R:3 energy=-66.03410157034602 pbc="F F F"
Er       0.00000000       0.00000000       0.00000000       0.00000000       0.00000000      -5.06680679
Er       0.00000000       0.00000000       2.12000000       0.00000000       0.00000000       5.06680679
2
Properties=species:S:1:pos:R:3:forces:R:3 energy=-66.32797573472268 pbc="F F F"
Er       0.00000000       0.00000000       0.00000000       0.00000000       0.00000000      -4.92506742
Er       0.00000000       0.00000000       2.17878788       0.00000000       0.00000000       4.92506742
2
Properties=species:S:1:pos:R:3:forces:R:3 energy=-66.61244247550366 pbc="F F F"
Er       0.00000000       0.00000000       0.00000000       0.00000000       0.00000000      -4.74312258
Er       0.00000000       0.00000000       2.23757576       0.00000000       0.00000000       4.74312258
2
Properties=species:S:1:pos:R:3:forces:R:3 energy=-66.8838854153316 pbc="F F F"
Er       0.00000000       0.00000000       0.00000000       0.00000000       0.00000000      -4.47144938
Er       0.00000000       0.00000000       2.29636364       0.00000000       0.00000000       4.47144938
2
Properties=species:S:1:pos:R:3:forces:R:3 energy=-67.1354838311461 pbc="F F F"
Er       0.00000000       0.00000000       0.00000000       0.00000000       0.00000000      -4.06512833
Er       0.00000000       0.00000000       2.35515152       0.00000000       0.00000000       4.06512833
2
Properties=species:S:1:pos:R:3:forces:R:3 energy=-67.3595930094382 pbc="F F F"
Er       0.00000000       0.00000000       0.00000000       0.00000000       0.00000000      -3.54502654
Er       0.00000000       0.00000000       2.41393939       0.00000000       0.00000000       3.54502654
2
Properties=species:S:1:pos:R:3:forces:R:3 energy=-67.55136059509742 pbc="F F F"
Er       0.00000000       0.00000000       0.00000000       0.00000000       0.00000000      -2.97682214
Er       0.00000000       0.00000000       2.47272727       0.00000000       0.00000000       2.97682214
2
Properties=species:S:1:pos:R:3:forces:R:3 energy=-67.70982522105636 pbc="F F F"
Er       0.00000000       0.00000000       0.00000000       0.00000000       0.00000000      -2.41949677
Er       0.00000000       0.00000000       2.53151515       0.00000000       0.00000000       2.41949677
2
Properties=species:S:1:pos:R:3:forces:R:3 energy=-67.83664240257188 pbc="F F F"
Er       0.00000000       0.00000000       0.00000000       0.00000000       0.00000000      -1.90279102
Er       0.00000000       0.00000000       2.59030303       0.00000000       0.00000000       1.90279102
2
Properties=species:S:1:pos:R:3:forces:R:3 energy=-67.93452812490153 pbc="F F F"
Er       0.00000000       0.00000000       0.00000000       0.00000000       0.00000000      -1.43589497
Er       0.00000000       0.00000000       2.64909091       0.00000000       0.00000000       1.43589497
2
Properties=species:S:1:pos:R:3:forces:R:3 energy=-68.00654932861916 pbc="F F F"
Er       0.00000000       0.00000000       0.00000000       0.00000000       0.00000000      -1.02430713
Er       0.00000000       0.00000000       2.70787879       0.00000000       0.00000000       1.02430713
2
Properties=species:S:1:pos:R:3:forces:R:3 energy=-68.05624594824913 pbc="F F F"
Er       0.00000000       0.00000000       0.00000000       0.00000000       0.00000000      -0.67821777
Er       0.00000000       0.00000000       2.76666667       0.00000000       0.00000000       0.67821777
2
Properties=species:S:1:pos:R:3:forces:R:3 energy=-68.0877988096312 pbc="F F F"
Er       0.00000000       0.00000000       0.00000000       0.00000000       0.00000000      -0.40877077
Er       0.00000000       0.00000000       2.82545455       0.00000000       0.00000000       0.40877077
2
Properties=species:S:1:pos:R:3:forces:R:3 energy=-68.10586175156256 pbc="F F F"
Er       0.00000000       0.00000000       0.00000000       0.00000000       0.00000000      -0.21834338
Er       0.00000000       0.00000000       2.88424242       0.00000000       0.00000000       0.21834338
2
Properties=species:S:1:pos:R:3:forces:R:3 energy=-68.11479102527205 pbc="F F F"
Er       0.00000000       0.00000000       0.00000000       0.00000000       0.00000000      -0.09498838
Er       0.00000000       0.00000000       2.94303030       0.00000000       0.00000000       0.09498838
2
Properties=species:S:1:pos:R:3:forces:R:3 energy=-68.11791295174062 pbc="F F F"
Er       0.00000000       0.00000000       0.00000000       0.00000000       0.00000000      -0.01643645
Er       0.00000000       0.00000000       3.00181818       0.00000000       0.00000000       0.01643645
2
Properties=species:S:1:pos:R:3:forces:R:3 energy=-68.11714999900599 pbc="F F F"
Er       0.00000000       0.00000000       0.00000000       0.00000000       0.00000000       0.04013953
Er       0.00000000       0.00000000       3.06060606       0.00000000       0.00000000      -0.04013953
2
Properties=species:S:1:pos:R:3:forces:R:3 energy=-68.11330313945233 pbc="F F F"
Er       0.00000000       0.00000000       0.00000000       0.00000000       0.00000000       0.09078971
Er       0.00000000       0.00000000       3.11939394       0.00000000       0.00000000      -0.09078971
2
Properties=species:S:1:pos:R:3:forces:R:3 energy=-68.10642561728241 pbc="F F F"
Er       0.00000000       0.00000000       0.00000000       0.00000000       0.00000000       0.14396650
Er       0.00000000       0.00000000       3.17818182       0.00000000       0.00000000      -0.14396650
2
Properties=species:S:1:pos:R:3:forces:R:3 energy=-68.0962426254055 pbc="F F F"
Er       0.00000000       0.00000000       0.00000000       0.00000000       0.00000000       0.20361324
Er       0.00000000       0.00000000       3.23696970       0.00000000       0.00000000      -0.20361324
2
Properties=species:S:1:pos:R:3:forces:R:3 energy=-68.08232675300107 pbc="F F F"
Er       0.00000000       0.00000000       0.00000000       0.00000000       0.00000000       0.27128488
Er       0.00000000       0.00000000       3.29575758       0.00000000       0.00000000      -0.27128488
2
Properties=species:S:1:pos:R:3:forces:R:3 energy=-68.06422005266356 pbc="F F F"
Er       0.00000000       0.00000000       0.00000000       0.00000000       0.00000000       0.34552160
Er       0.00000000       0.00000000       3.35454545       0.00000000       0.00000000      -0.34552160
2
Properties=species:S:1:pos:R:3:forces:R:3 energy=-68.04167819053085 pbc="F F F"
Er       0.00000000       0.00000000       0.00000000       0.00000000       0.00000000       0.42061883
Er       0.00000000       0.00000000       3.41333333       0.00000000       0.00000000      -0.42061883
2
Properties=species:S:1:pos:R:3:forces:R:3 energy=-68.01492222580717 pbc="F F F"
Er       0.00000000       0.00000000       0.00000000       0.00000000       0.00000000       0.48774400
Er       0.00000000       0.00000000       3.47212121       0.00000000       0.00000000      -0.48774400
2
Properties=species:S:1:pos:R:3:forces:R:3 energy=-67.98465384420966 pbc="F F F"
Er       0.00000000       0.00000000       0.00000000       0.00000000       0.00000000       0.53895193
Er       0.00000000       0.00000000       3.53090909       0.00000000       0.00000000      -0.53895193
2
Properties=species:S:1:pos:R:3:forces:R:3 energy=-67.95191806371287 pbc="F F F"
Er       0.00000000       0.00000000       0.00000000       0.00000000       0.00000000       0.57172990
Er       0.00000000       0.00000000       3.58969697       0.00000000       0.00000000      -0.57172990
2
Properties=species:S:1:pos:R:3:forces:R:3 energy=-67.91769885446375 pbc="F F F"
Er       0.00000000       0.00000000       0.00000000       0.00000000       0.00000000       0.59100306
Er       0.00000000       0.00000000       3.64848485       0.00000000       0.00000000      -0.59100306
2
Properties=species:S:1:pos:R:3:forces:R:3 energy=-67.88249188635235 pbc="F F F"
Er       0.00000000       0.00000000       0.00000000       0.00000000       0.00000000       0.60702580
Er       0.00000000       0.00000000       3.70727273       0.00000000       0.00000000      -0.60702580
2
Properties=species:S:1:pos:R:3:forces:R:3 energy=-67.84618248087406 pbc="F F F"
Er       0.00000000       0.00000000       0.00000000       0.00000000       0.00000000       0.63014698
Er       0.00000000       0.00000000       3.76606061       0.00000000       0.00000000      -0.63014698
2
Properties=species:S:1:pos:R:3:forces:R:3 energy=-67.8081600172015 pbc="F F F"
Er       0.00000000       0.00000000       0.00000000       0.00000000       0.00000000       0.66547137
Er       0.00000000       0.00000000       3.82484848       0.00000000       0.00000000      -0.66547137
2
Properties=species:S:1:pos:R:3:forces:R:3 energy=-67.76774521629213 pbc="F F F"
Er       0.00000000       0.00000000       0.00000000       0.00000000       0.00000000       0.71069783
Er       0.00000000       0.00000000       3.88363636       0.00000000       0.00000000      -0.71069783
2
Properties=species:S:1:pos:R:3:forces:R:3 energy=-67.72455631381193 pbc="F F F"
Er       0.00000000       0.00000000       0.00000000       0.00000000       0.00000000       0.75821877
Er       0.00000000       0.00000000       3.94242424       0.00000000       0.00000000      -0.75821877
2
Properties=species:S:1:pos:R:3:forces:R:3 energy=-67.67871509496942 pbc="F F F"
Er       0.00000000       0.00000000       0.00000000       0.00000000       0.00000000       0.79956377
Er       0.00000000       0.00000000       4.00121212       0.00000000       0.00000000      -0.79956377
2
Properties=species:S:1:pos:R:3:forces:R:3 energy=-67.63077819195098 pbc="F F F"
Er       0.00000000       0.00000000       0.00000000       0.00000000       0.00000000       0.82907009
Er       0.00000000       0.00000000       4.06000000       0.00000000       0.00000000      -0.82907009
2
Properties=species:S:1:pos:R:3:forces:R:3 energy=-67.58150823059535 pbc="F F F"
Er       0.00000000       0.00000000       0.00000000       0.00000000       0.00000000       0.84512353
Er       0.00000000       0.00000000       4.11878788       0.00000000       0.00000000      -0.84512353
2
Properties=species:S:1:pos:R:3:forces:R:3 energy=-67.53164493588636 pbc="F F F"
Er       0.00000000       0.00000000       0.00000000       0.00000000       0.00000000       0.84925508
Er       0.00000000       0.00000000       4.17757576       0.00000000       0.00000000      -0.84925508
2
Properties=species:S:1:pos:R:3:forces:R:3 energy=-67.48182884434333 pbc="F F F"
Er       0.00000000       0.00000000       0.00000000       0.00000000       0.00000000       0.84432280
Er       0.00000000       0.00000000       4.23636364       0.00000000       0.00000000      -0.84432280
2
Properties=species:S:1:pos:R:3:forces:R:3 energy=-67.43250211872427 pbc="F F F"
Er       0.00000000       0.00000000       0.00000000       0.00000000       0.00000000       0.83281523
Er       0.00000000       0.00000000       4.29515152       0.00000000       0.00000000      -0.83281523
2
Properties=species:S:1:pos:R:3:forces:R:3 energy=-67.38401536271718 pbc="F F F"
Er       0.00000000       0.00000000       0.00000000       0.00000000       0.00000000       0.81586862
Er       0.00000000       0.00000000       4.35393939       0.00000000       0.00000000      -0.81586862
2
Properties=species:S:1:pos:R:3:forces:R:3 energy=-67.33668865609631 pbc="F F F"
Er       0.00000000       0.00000000       0.00000000       0.00000000       0.00000000       0.79308581
Er       0.00000000       0.00000000       4.41272727       0.00000000       0.00000000      -0.79308581
2
Properties=species:S:1:pos:R:3:forces:R:3 energy=-67.290910736851 pbc="F F F"
Er       0.00000000       0.00000000       0.00000000       0.00000000       0.00000000       0.76308471
Er       0.00000000       0.00000000       4.47151515       0.00000000       0.00000000      -0.76308471
2
Properties=species:S:1:pos:R:3:forces:R:3 energy=-67.24713901385708 pbc="F F F"
Er       0.00000000       0.00000000       0.00000000       0.00000000       0.00000000       0.72446430
Er       0.00000000       0.00000000       4.53030303       0.00000000       0.00000000      -0.72446430
2
Properties=species:S:1:pos:R:3:forces:R:3 energy=-67.2059071867678 pbc="F F F"
Er       0.00000000       0.00000000       0.00000000       0.00000000       0.00000000       0.67683923
Er       0.00000000       0.00000000       4.58909091       0.00000000       0.00000000      -0.67683923
2
Properties=species:S:1:pos:R:3:forces:R:3 energy=-67.16771079876034 pbc="F F F"
Er       0.00000000       0.00000000       0.00000000       0.00000000       0.00000000       0.62148708
Er       0.00000000       0.00000000       4.64787879       0.00000000       0.00000000      -0.62148708
2
Properties=species:S:1:pos:R:3:forces:R:3 energy=-67.13293097110082 pbc="F F F"
Er       0.00000000       0.00000000       0.00000000       0.00000000       0.00000000       0.56130356
Er       0.00000000       0.00000000       4.70666667       0.00000000       0.00000000      -0.56130356
2
Properties=species:S:1:pos:R:3:forces:R:3 energy=-67.10173519884069 pbc="F F F"
Er       0.00000000       0.00000000       0.00000000       0.00000000       0.00000000       0.50009960
Er       0.00000000       0.00000000       4.76545455       0.00000000       0.00000000      -0.50009960
2
Properties=species:S:1:pos:R:3:forces:R:3 energy=-67.07407737140748 pbc="F F F"
Er       0.00000000       0.00000000       0.00000000       0.00000000       0.00000000       0.44144806
Er       0.00000000       0.00000000       4.82424242       0.00000000       0.00000000      -0.44144806
2
Properties=species:S:1:pos:R:3:forces:R:3 energy=-67.04973591007415 pbc="F F F"
Er       0.00000000       0.00000000       0.00000000       0.00000000       0.00000000       0.38774082
Er       0.00000000       0.00000000       4.88303030       0.00000000       0.00000000      -0.38774082
2
Properties=species:S:1:pos:R:3:forces:R:3 energy=-67.02838244042927 pbc="F F F"
Er       0.00000000       0.00000000       0.00000000       0.00000000       0.00000000       0.33964249
Er       0.00000000       0.00000000       4.94181818       0.00000000       0.00000000      -0.33964249
2
Properties=species:S:1:pos:R:3:forces:R:3 energy=-67.00971149525193 pbc="F F F"
Er       0.00000000       0.00000000       0.00000000       0.00000000       0.00000000       0.29631308
Er       0.00000000       0.00000000       5.00060606       0.00000000       0.00000000      -0.29631308
2
Properties=species:S:1:pos:R:3:forces:R:3 energy=-66.99347866623619 pbc="F F F"
Er       0.00000000       0.00000000       0.00000000       0.00000000       0.00000000       0.25602317
Er       0.00000000       0.00000000       5.05939394       0.00000000       0.00000000      -0.25602317
2
Properties=species:S:1:pos:R:3:forces:R:3 energy=-66.97957690427194 pbc="F F F"
Er       0.00000000       0.00000000       0.00000000       0.00000000       0.00000000       0.21717677
Er       0.00000000       0.00000000       5.11818182       0.00000000       0.00000000      -0.21717677
2
Properties=species:S:1:pos:R:3:forces:R:3 energy=-66.96792970000196 pbc="F F F"
Er       0.00000000       0.00000000       0.00000000       0.00000000       0.00000000       0.17932998
Er       0.00000000       0.00000000       5.17696970       0.00000000       0.00000000      -0.17932998
2
Properties=species:S:1:pos:R:3:forces:R:3 energy=-66.95844532646164 pbc="F F F"
Er       0.00000000       0.00000000       0.00000000       0.00000000       0.00000000       0.14408073
Er       0.00000000       0.00000000       5.23575758       0.00000000       0.00000000      -0.14408073
2
Properties=species:S:1:pos:R:3:forces:R:3 energy=-66.95087187741514 pbc="F F F"
Er       0.00000000       0.00000000       0.00000000       0.00000000       0.00000000       0.11501309
Er       0.00000000       0.00000000       5.29454545       0.00000000       0.00000000      -0.11501309
2
Properties=species:S:1:pos:R:3:forces:R:3 energy=-66.94473623219899 pbc="F F F"
Er       0.00000000       0.00000000       0.00000000       0.00000000       0.00000000       0.09536880
Er       0.00000000       0.00000000       5.35333333       0.00000000       0.00000000      -0.09536880
2
Properties=species:S:1:pos:R:3:forces:R:3 energy=-66.93951191824105 pbc="F F F"
Er       0.00000000       0.00000000       0.00000000       0.00000000       0.00000000       0.08287824
Er       0.00000000       0.00000000       5.41212121       0.00000000       0.00000000      -0.08287824
2
Properties=species:S:1:pos:R:3:forces:R:3 energy=-66.93501582848864 pbc="F F F"
Er       0.00000000       0.00000000       0.00000000       0.00000000       0.00000000       0.06931575
Er       0.00000000       0.00000000       5.47090909       0.00000000       0.00000000      -0.06931575
2
Properties=species:S:1:pos:R:3:forces:R:3 energy=-66.9314311206796 pbc="F F F"
Er       0.00000000       0.00000000       0.00000000       0.00000000       0.00000000       0.05238567
Er       0.00000000       0.00000000       5.52969697       0.00000000       0.00000000      -0.05238567
2
Properties=species:S:1:pos:R:3:forces:R:3 energy=-66.92882657182238 pbc="F F F"
Er       0.00000000       0.00000000       0.00000000       0.00000000       0.00000000       0.03639720
Er       0.00000000       0.00000000       5.58848485       0.00000000       0.00000000      -0.03639720
2
Properties=species:S:1:pos:R:3:forces:R:3 energy=-66.92716420759065 pbc="F F F"
Er       0.00000000       0.00000000       0.00000000       0.00000000       0.00000000       0.01973570
Er       0.00000000       0.00000000       5.64727273       0.00000000       0.00000000      -0.01973570
2
Properties=species:S:1:pos:R:3:forces:R:3 energy=-66.92663498459521 pbc="F F F"
Er       0.00000000       0.00000000       0.00000000       0.00000000       0.00000000      -0.00304278
Er       0.00000000       0.00000000       5.70606061       0.00000000       0.00000000       0.00304278
2
Properties=species:S:1:pos:R:3:forces:R:3 energy=-66.92762830290029 pbc="F F F"
Er       0.00000000       0.00000000       0.00000000       0.00000000       0.00000000      -0.03032944
Er       0.00000000       0.00000000       5.76484848       0.00000000       0.00000000       0.03032944
2
Properties=species:S:1:pos:R:3:forces:R:3 energy=-66.9298927456985 pbc="F F F"
Er       0.00000000       0.00000000       0.00000000       0.00000000       0.00000000      -0.04211397
Er       0.00000000       0.00000000       5.82363636       0.00000000       0.00000000       0.04211397
2
Properties=species:S:1:pos:R:3:forces:R:3 energy=-66.93201728998628 pbc="F F F"
Er       0.00000000       0.00000000       0.00000000       0.00000000       0.00000000      -0.02712356
Er       0.00000000       0.00000000       5.88242424       0.00000000       0.00000000       0.02712356
2
Properties=species:S:1:pos:R:3:forces:R:3 energy=-66.93291142335808 pbc="F F F"
Er       0.00000000       0.00000000       0.00000000       0.00000000       0.00000000      -0.00361044
Er       0.00000000       0.00000000       5.94121212       0.00000000       0.00000000       0.00361044
2
Properties=species:S:1:pos:R:3:forces:R:3 energy=-66.93272064283977 pbc="F F F"
Er       0.00000000       0.00000000       0.00000000       0.00000000       0.00000000       0.00669416
Er       0.00000000       0.00000000       6.00000000       0.00000000       0.00000000      -0.00669416
