2
Properties=species:S:1:pos:R:3:forces:R:3 energy=845964.6586186709 pbc="F F F"
Er       0.00000000       0.00000000       0.00000000       0.00000000       0.00000000 -309009.03125000
Er       0.00000000       0.00000000       0.18000000       0.00000000       0.00000000  309009.03125000
2
Properties=species:S:1:pos:R:3:forces:R:3 energy=829643.4086186709 pbc="F F F"
Er       0.00000000       0.00000000       0.00000000       0.00000000       0.00000000 -294276.90625000
Er       0.00000000       0.00000000       0.23878788       0.00000000       0.00000000  294276.90625000
2
Properties=species:S:1:pos:R:3:forces:R:3 energy=807219.3461186709 pbc="F F F"
Er       0.00000000       0.00000000       0.00000000       0.00000000       0.00000000 -498527.28125000
Er       0.00000000       0.00000000       0.29757576       0.00000000       0.00000000  498527.28125000
2
Properties=species:S:1:pos:R:3:forces:R:3 energy=767830.4086186709 pbc="F F F"
Er       0.00000000       0.00000000       0.00000000       0.00000000       0.00000000 -867107.93750000
Er       0.00000000       0.00000000       0.35636364       0.00000000       0.00000000  867107.93750000
2
Properties=species:S:1:pos:R:3:forces:R:3 energy=702658.7211186709 pbc="F F F"
Er       0.00000000       0.00000000       0.00000000       0.00000000       0.00000000 -1366630.37500000
Er       0.00000000       0.00000000       0.41515152       0.00000000       0.00000000 1366630.37500000
2
Properties=species:S:1:pos:R:3:forces:R:3 energy=606161.471118674 pbc="F F F"
Er       0.00000000       0.00000000       0.00000000       0.00000000       0.00000000 -1912976.37500000
Er       0.00000000       0.00000000       0.47393939       0.00000000       0.00000000 1912976.37500000
2
Properties=species:S:1:pos:R:3:forces:R:3 energy=479886.03361867403 pbc="F F F"
Er       0.00000000       0.00000000       0.00000000       0.00000000       0.00000000 -2348268.00000000
Er       0.00000000       0.00000000       0.53272727       0.00000000       0.00000000 2348268.00000000
2
Properties=species:S:1:pos:R:3:forces:R:3 energy=336198.75236867403 pbc="F F F"
Er       0.00000000       0.00000000       0.00000000       0.00000000       0.00000000 -2472871.25000000
Er       0.00000000       0.00000000       0.59151515       0.00000000       0.00000000 2472871.25000000
2
Properties=species:S:1:pos:R:3:forces:R:3 energy=197994.17424368038 pbc="F F F"
Er       0.00000000       0.00000000       0.00000000       0.00000000       0.00000000 -2152395.25000000
Er       0.00000000       0.00000000       0.65030303       0.00000000       0.00000000 2152395.25000000
2
Properties=species:S:1:pos:R:3:forces:R:3 energy=90653.9789311867 pbc="F F F"
Er       0.00000000       0.00000000       0.00000000       0.00000000       0.00000000 -1456555.25000000
Er       0.00000000       0.00000000       0.70909091       0.00000000       0.00000000 1456555.25000000
2
Properties=species:S:1:pos:R:3:forces:R:3 energy=28174.18791557438 pbc="F F F"
Er       0.00000000       0.00000000       0.00000000       0.00000000       0.00000000 -690731.43750000
Er       0.00000000       0.00000000       0.76787879       0.00000000       0.00000000  690731.43750000
2
Properties=species:S:1:pos:R:3:forces:R:3 energy=4308.285083558969 pbc="F F F"
Er       0.00000000       0.00000000       0.00000000       0.00000000       0.00000000 -183511.82812500
Er       0.00000000       0.00000000       0.82666667       0.00000000       0.00000000  183511.82812500
2
Properties=species:S:1:pos:R:3:forces:R:3 energy=-43.01908512002795 pbc="F F F"
Er       0.00000000       0.00000000       0.00000000       0.00000000       0.00000000    -601.73602295
Er       0.00000000       0.00000000       0.88545455       0.00000000       0.00000000     601.73602295
2
Properties=species:S:1:pos:R:3:forces:R:3 energy=-53.381519475556765 pbc="F F F"
Er       0.00000000       0.00000000       0.00000000       0.00000000       0.00000000    -275.11819458
Er       0.00000000       0.00000000       0.94424242       0.00000000       0.00000000     275.11819458
2
Properties=species:S:1:pos:R:3:forces:R:3 energy=-76.62296687993772 pbc="F F F"
Er       0.00000000       0.00000000       0.00000000       0.00000000       0.00000000     -25.38245392
Er       0.00000000       0.00000000       1.00303030       0.00000000       0.00000000      25.38245392
2
Properties=species:S:1:pos:R:3:forces:R:3 energy=-77.27302175455755 pbc="F F F"
Er       0.00000000       0.00000000       0.00000000       0.00000000       0.00000000       0.78130394
Er       0.00000000       0.00000000       1.06181818       0.00000000       0.00000000      -0.78130394
2
Properties=species:S:1:pos:R:3:forces:R:3 energy=-76.85882947882278 pbc="F F F"
Er       0.00000000       0.00000000       0.00000000       0.00000000       0.00000000      12.05923080
Er       0.00000000       0.00000000       1.12060606       0.00000000       0.00000000     -12.05923080
2
Properties=species:S:1:pos:R:3:forces:R:3 energy=-75.85244357422982 pbc="F F F"
Er       0.00000000       0.00000000       0.00000000       0.00000000       0.00000000      22.59281158
Er       0.00000000       0.00000000       1.17939394       0.00000000       0.00000000     -22.59281158
2
Properties=species:S:1:pos:R:3:forces:R:3 energy=-74.22516988794662 pbc="F F F"
Er       0.00000000       0.00000000       0.00000000       0.00000000       0.00000000      31.69229889
Er       0.00000000       0.00000000       1.23818182       0.00000000       0.00000000     -31.69229889
2
Properties=species:S:1:pos:R:3:forces:R:3 energy=-72.30160862702846 pbc="F F F"
Er       0.00000000       0.00000000       0.00000000       0.00000000       0.00000000      32.43721771
Er       0.00000000       0.00000000       1.29696970       0.00000000       0.00000000     -32.43721771
2
Properties=species:S:1:pos:R:3:forces:R:3 energy=-70.4965547070147 pbc="F F F"
Er       0.00000000       0.00000000       0.00000000       0.00000000       0.00000000      28.73160934
Er       0.00000000       0.00000000       1.35575758       0.00000000       0.00000000     -28.73160934
2
Properties=species:S:1:pos:R:3:forces:R:3 energy=-68.92728717430407 pbc="F F F"
Er       0.00000000       0.00000000       0.00000000       0.00000000       0.00000000      24.69176865
Er       0.00000000       0.00000000       1.41454545       0.00000000       0.00000000     -24.69176865
2
Properties=species:S:1:pos:R:3:forces:R:3 energy=-67.59373735801013 pbc="F F F"
Er       0.00000000       0.00000000       0.00000000       0.00000000       0.00000000      20.61375237
Er       0.00000000       0.00000000       1.47333333       0.00000000       0.00000000     -20.61375237
2
Properties=species:S:1:pos:R:3:forces:R:3 energy=-66.51594002916502 pbc="F F F"
Er       0.00000000       0.00000000       0.00000000       0.00000000       0.00000000      15.94070148
Er       0.00000000       0.00000000       1.53212121       0.00000000       0.00000000     -15.94070148
2
Properties=species:S:1:pos:R:3:forces:R:3 energy=-65.7271669709839 pbc="F F F"
Er       0.00000000       0.00000000       0.00000000       0.00000000       0.00000000      10.90591526
Er       0.00000000       0.00000000       1.59090909       0.00000000       0.00000000     -10.90591526
2
Properties=species:S:1:pos:R:3:forces:R:3 energy=-65.22132227822932 pbc="F F F"
Er       0.00000000       0.00000000       0.00000000       0.00000000       0.00000000       6.48754740
Er       0.00000000       0.00000000       1.64969697       0.00000000       0.00000000      -6.48754740
2
Properties=species:S:1:pos:R:3:forces:R:3 energy=-64.93929338940191 pbc="F F F"
Er       0.00000000       0.00000000       0.00000000       0.00000000       0.00000000       3.30927849
Er       0.00000000       0.00000000       1.70848485       0.00000000       0.00000000      -3.30927849
2
Properties=species:S:1:pos:R:3:forces:R:3 energy=-64.81493342857313 pbc="F F F"
Er       0.00000000       0.00000000       0.00000000       0.00000000       0.00000000       1.00482535
Er       0.00000000       0.00000000       1.76727273       0.00000000       0.00000000      -1.00482535
2
Properties=species:S:1:pos:R:3:forces:R:3 energy=-64.81703053004436 pbc="F F F"
Er       0.00000000       0.00000000       0.00000000       0.00000000       0.00000000      -1.06629074
Er       0.00000000       0.00000000       1.82606061       0.00000000       0.00000000       1.06629074
2
Properties=species:S:1:pos:R:3:forces:R:3 energy=-64.93758906300427 pbc="F F F"
Er       0.00000000       0.00000000       0.00000000       0.00000000       0.00000000      -2.98034239
Er       0.00000000       0.00000000       1.88484848       0.00000000       0.00000000       2.98034239
2
Properties=species:S:1:pos:R:3:forces:R:3 energy=-65.15649028873136 pbc="F F F"
Er       0.00000000       0.00000000       0.00000000       0.00000000       0.00000000      -4.34579849
Er       0.00000000       0.00000000       1.94363636       0.00000000       0.00000000       4.34579849
2
Properties=species:S:1:pos:R:3:forces:R:3 energy=-65.43412236547684 pbc="F F F"
Er       0.00000000       0.00000000       0.00000000       0.00000000       0.00000000      -4.99074030
Er       0.00000000       0.00000000       2.00242424       0.00000000       0.00000000       4.99074030
2
Properties=species:S:1:pos:R:3:forces:R:3 energy=-65.73353609751196 pbc="F F F"
Er       0.00000000       0.00000000       0.00000000       0.00000000       0.00000000      -5.13876295
Er       0.00000000       0.00000000       2.06121212       0.00000000       0.00000000       5.13876295
2
Properties=species:S:1:pos:R:3:forces:R:3 energy=-66.03410157034602 pbc="F F F"
Er       0.00000000       0.00000000       0.00000000       0.00000000       0.00000000      -5.06680965
Er       0.00000000       0.00000000       2.12000000       0.00000000       0.00000000       5.06680965
2
Properties=species:S:1:pos:R:3:forces:R:3 energy=-66.32797573472268 pbc="F F F"
Er       0.00000000       0.00000000       0.00000000       0.00000000       0.00000000      -4.92507124
Er       0.00000000       0.00000000       2.17878788       0.00000000       0.00000000       4.92507124
2
Properties=species:S:1:pos:R:3:forces:R:3 energy=-66.61244247550366 pbc="F F F"
Er       0.00000000       0.00000000       0.00000000       0.00000000       0.00000000      -4.74312210
Er       0.00000000       0.00000000       2.23757576       0.00000000       0.00000000       4.74312210
2
Properties=species:S:1:pos:R:3:forces:R:3 energy=-66.88389304472614 pbc="F F F"
Er       0.00000000       0.00000000       0.00000000       0.00000000       0.00000000      -4.47144938
Er       0.00000000       0.00000000       2.29636364       0.00000000       0.00000000       4.47144938
2
Properties=species:S:1:pos:R:3:forces:R:3 energy=-67.1354838311461 pbc="F F F"
Er       0.00000000       0.00000000       0.00000000       0.00000000       0.00000000      -4.06513119
Er       0.00000000       0.00000000       2.35515152       0.00000000       0.00000000       4.06513119
2
Properties=species:S:1:pos:R:3:forces:R:3 energy=-67.3595930094382 pbc="F F F"
Er       0.00000000       0.00000000       0.00000000       0.00000000       0.00000000      -3.54502439
Er       0.00000000       0.00000000       2.41393939       0.00000000       0.00000000       3.54502439
2
Properties=species:S:1:pos:R:3:forces:R:3 energy=-67.55136059509742 pbc="F F F"
Er       0.00000000       0.00000000       0.00000000       0.00000000       0.00000000      -2.97682190
Er       0.00000000       0.00000000       2.47272727       0.00000000       0.00000000       2.97682190
2
Properties=species:S:1:pos:R:3:forces:R:3 energy=-67.70982522105636 pbc="F F F"
Er       0.00000000       0.00000000       0.00000000       0.00000000       0.00000000      -2.41949582
Er       0.00000000       0.00000000       2.53151515       0.00000000       0.00000000       2.41949582
2
Properties=species:S:1:pos:R:3:forces:R:3 energy=-67.83664240257188 pbc="F F F"
Er       0.00000000       0.00000000       0.00000000       0.00000000       0.00000000      -1.90279436
Er       0.00000000       0.00000000       2.59030303       0.00000000       0.00000000       1.90279436
2
Properties=species:S:1:pos:R:3:forces:R:3 energy=-67.93452812490153 pbc="F F F"
Er       0.00000000       0.00000000       0.00000000       0.00000000       0.00000000      -1.43589723
Er       0.00000000       0.00000000       2.64909091       0.00000000       0.00000000       1.43589723
2
Properties=species:S:1:pos:R:3:forces:R:3 energy=-68.00654932861916 pbc="F F F"
Er       0.00000000       0.00000000       0.00000000       0.00000000       0.00000000      -1.02430773
Er       0.00000000       0.00000000       2.70787879       0.00000000       0.00000000       1.02430773
2
Properties=species:S:1:pos:R:3:forces:R:3 energy=-68.05624594824913 pbc="F F F"
Er       0.00000000       0.00000000       0.00000000       0.00000000       0.00000000      -0.67821878
Er       0.00000000       0.00000000       2.76666667       0.00000000       0.00000000       0.67821878
2
Properties=species:S:1:pos:R:3:forces:R:3 energy=-68.0877988096312 pbc="F F F"
Er       0.00000000       0.00000000       0.00000000       0.00000000       0.00000000      -0.40877166
Er       0.00000000       0.00000000       2.82545455       0.00000000       0.00000000       0.40877166
2
Properties=species:S:1:pos:R:3:forces:R:3 energy=-68.10586175156256 pbc="F F F"
Er       0.00000000       0.00000000       0.00000000       0.00000000       0.00000000      -0.21834302
Er       0.00000000       0.00000000       2.88424242       0.00000000       0.00000000       0.21834302
2
Properties=species:S:1:pos:R:3:forces:R:3 energy=-68.11479102527205 pbc="F F F"
Er       0.00000000       0.00000000       0.00000000       0.00000000       0.00000000      -0.09498802
Er       0.00000000       0.00000000       2.94303030       0.00000000       0.00000000       0.09498802
2
Properties=species:S:1:pos:R:3:forces:R:3 energy=-68.11791295174062 pbc="F F F"
Er       0.00000000       0.00000000       0.00000000       0.00000000       0.00000000      -0.01643591
Er       0.00000000       0.00000000       3.00181818       0.00000000       0.00000000       0.01643591
2
Properties=species:S:1:pos:R:3:forces:R:3 energy=-68.11714999900599 pbc="F F F"
Er       0.00000000       0.00000000       0.00000000       0.00000000       0.00000000       0.04014162
Er       0.00000000       0.00000000       3.06060606       0.00000000       0.00000000      -0.04014162
2
Properties=species:S:1:pos:R:3:forces:R:3 energy=-68.11330313945233 pbc="F F F"
Er       0.00000000       0.00000000       0.00000000       0.00000000       0.00000000       0.09078851
Er       0.00000000       0.00000000       3.11939394       0.00000000       0.00000000      -0.09078851
2
Properties=species:S:1:pos:R:3:forces:R:3 energy=-68.10642561728241 pbc="F F F"
Er       0.00000000       0.00000000       0.00000000       0.00000000       0.00000000       0.14396650
Er       0.00000000       0.00000000       3.17818182       0.00000000       0.00000000      -0.14396650
2
Properties=species:S:1:pos:R:3:forces:R:3 energy=-68.0962426254055 pbc="F F F"
Er       0.00000000       0.00000000       0.00000000       0.00000000       0.00000000       0.20361625
Er       0.00000000       0.00000000       3.23696970       0.00000000       0.00000000      -0.20361625
2
Properties=species:S:1:pos:R:3:forces:R:3 energy=-68.08232675300107 pbc="F F F"
Er       0.00000000       0.00000000       0.00000000       0.00000000       0.00000000       0.27128464
Er       0.00000000       0.00000000       3.29575758       0.00000000       0.00000000      -0.27128464
2
Properties=species:S:1:pos:R:3:forces:R:3 energy=-68.06422005266356 pbc="F F F"
Er       0.00000000       0.00000000       0.00000000       0.00000000       0.00000000       0.34552440
Er       0.00000000       0.00000000       3.35454545       0.00000000       0.00000000      -0.34552440
2
Properties=species:S:1:pos:R:3:forces:R:3 energy=-68.04167819053085 pbc="F F F"
Er       0.00000000       0.00000000       0.00000000       0.00000000       0.00000000       0.42061889
Er       0.00000000       0.00000000       3.41333333       0.00000000       0.00000000      -0.42061889
2
Properties=species:S:1:pos:R:3:forces:R:3 energy=-68.01492222580717 pbc="F F F"
Er       0.00000000       0.00000000       0.00000000       0.00000000       0.00000000       0.48774391
Er       0.00000000       0.00000000       3.47212121       0.00000000       0.00000000      -0.48774391
2
Properties=species:S:1:pos:R:3:forces:R:3 energy=-67.98465384420966 pbc="F F F"
Er       0.00000000       0.00000000       0.00000000       0.00000000       0.00000000       0.53895164
Er       0.00000000       0.00000000       3.53090909       0.00000000       0.00000000      -0.53895164
2
Properties=species:S:1:pos:R:3:forces:R:3 energy=-67.95191806371287 pbc="F F F"
Er       0.00000000       0.00000000       0.00000000       0.00000000       0.00000000       0.57172906
Er       0.00000000       0.00000000       3.58969697       0.00000000       0.00000000      -0.57172906
2
Properties=species:S:1:pos:R:3:forces:R:3 energy=-67.91769885446375 pbc="F F F"
Er       0.00000000       0.00000000       0.00000000       0.00000000       0.00000000       0.59100348
Er       0.00000000       0.00000000       3.64848485       0.00000000       0.00000000      -0.59100348
2
Properties=species:S:1:pos:R:3:forces:R:3 energy=-67.88249188635235 pbc="F F F"
Er       0.00000000       0.00000000       0.00000000       0.00000000       0.00000000       0.60702491
Er       0.00000000       0.00000000       3.70727273       0.00000000       0.00000000      -0.60702491
2
Properties=species:S:1:pos:R:3:forces:R:3 energy=-67.84618248087406 pbc="F F F"
Er       0.00000000       0.00000000       0.00000000       0.00000000       0.00000000       0.63014644
Er       0.00000000       0.00000000       3.76606061       0.00000000       0.00000000      -0.63014644
2
Properties=species:S:1:pos:R:3:forces:R:3 energy=-67.8081600172015 pbc="F F F"
Er       0.00000000       0.00000000       0.00000000       0.00000000       0.00000000       0.66547245
Er       0.00000000       0.00000000       3.82484848       0.00000000       0.00000000      -0.66547245
2
Properties=species:S:1:pos:R:3:forces:R:3 energy=-67.76774521629213 pbc="F F F"
Er       0.00000000       0.00000000       0.00000000       0.00000000       0.00000000       0.71069753
Er       0.00000000       0.00000000       3.88363636       0.00000000       0.00000000      -0.71069753
2
Properties=species:S:1:pos:R:3:forces:R:3 energy=-67.72455631381193 pbc="F F F"
Er       0.00000000       0.00000000       0.00000000       0.00000000       0.00000000       0.75821924
Er       0.00000000       0.00000000       3.94242424       0.00000000       0.00000000      -0.75821924
2
Properties=species:S:1:pos:R:3:forces:R:3 energy=-67.67871509496942 pbc="F F F"
Er       0.00000000       0.00000000       0.00000000       0.00000000       0.00000000       0.79956430
Er       0.00000000       0.00000000       4.00121212       0.00000000       0.00000000      -0.79956430
2
Properties=species:S:1:pos:R:3:forces:R:3 energy=-67.63077819195098 pbc="F F F"
Er       0.00000000       0.00000000       0.00000000       0.00000000       0.00000000       0.82907057
Er       0.00000000       0.00000000       4.06000000       0.00000000       0.00000000      -0.82907057
2
Properties=species:S:1:pos:R:3:forces:R:3 energy=-67.58150060120082 pbc="F F F"
Er       0.00000000       0.00000000       0.00000000       0.00000000       0.00000000       0.84512353
Er       0.00000000       0.00000000       4.11878788       0.00000000       0.00000000      -0.84512353
2
Properties=species:S:1:pos:R:3:forces:R:3 energy=-67.53164493588636 pbc="F F F"
Er       0.00000000       0.00000000       0.00000000       0.00000000       0.00000000       0.84925640
Er       0.00000000       0.00000000       4.17757576       0.00000000       0.00000000      -0.84925640
2
Properties=species:S:1:pos:R:3:forces:R:3 energy=-67.48182884434333 pbc="F F F"
Er       0.00000000       0.00000000       0.00000000       0.00000000       0.00000000       0.84432274
Er       0.00000000       0.00000000       4.23636364       0.00000000       0.00000000      -0.84432274
2
Properties=species:S:1:pos:R:3:forces:R:3 energy=-67.43250211872427 pbc="F F F"
Er       0.00000000       0.00000000       0.00000000       0.00000000       0.00000000       0.83281368
Er       0.00000000       0.00000000       4.29515152       0.00000000       0.00000000      -0.83281368
2
Properties=species:S:1:pos:R:3:forces:R:3 energy=-67.38401536271718 pbc="F F F"
Er       0.00000000       0.00000000       0.00000000       0.00000000       0.00000000       0.81586790
Er       0.00000000       0.00000000       4.35393939       0.00000000       0.00000000      -0.81586790
2
Properties=species:S:1:pos:R:3:forces:R:3 energy=-67.33668865609631 pbc="F F F"
Er       0.00000000       0.00000000       0.00000000       0.00000000       0.00000000       0.79308414
Er       0.00000000       0.00000000       4.41272727       0.00000000       0.00000000      -0.79308414
2
Properties=species:S:1:pos:R:3:forces:R:3 energy=-67.290910736851 pbc="F F F"
Er       0.00000000       0.00000000       0.00000000       0.00000000       0.00000000       0.76308429
Er       0.00000000       0.00000000       4.47151515       0.00000000       0.00000000      -0.76308429
2
Properties=species:S:1:pos:R:3:forces:R:3 energy=-67.24713901385708 pbc="F F F"
Er       0.00000000       0.00000000       0.00000000       0.00000000       0.00000000       0.72446454
Er       0.00000000       0.00000000       4.53030303       0.00000000       0.00000000      -0.72446454
2
Properties=species:S:1:pos:R:3:forces:R:3 energy=-67.2059071867678 pbc="F F F"
Er       0.00000000       0.00000000       0.00000000       0.00000000       0.00000000       0.67684066
Er       0.00000000       0.00000000       4.58909091       0.00000000       0.00000000      -0.67684066
2
Properties=species:S:1:pos:R:3:forces:R:3 energy=-67.16771079876034 pbc="F F F"
Er       0.00000000       0.00000000       0.00000000       0.00000000       0.00000000       0.62148565
Er       0.00000000       0.00000000       4.64787879       0.00000000       0.00000000      -0.62148565
2
Properties=species:S:1:pos:R:3:forces:R:3 energy=-67.13293097110082 pbc="F F F"
Er       0.00000000       0.00000000       0.00000000       0.00000000       0.00000000       0.56130153
Er       0.00000000       0.00000000       4.70666667       0.00000000       0.00000000      -0.56130153
2
Properties=species:S:1:pos:R:3:forces:R:3 energy=-67.10173519884069 pbc="F F F"
Er       0.00000000       0.00000000       0.00000000       0.00000000       0.00000000       0.50009710
Er       0.00000000       0.00000000       4.76545455       0.00000000       0.00000000      -0.50009710
2
Properties=species:S:1:pos:R:3:forces:R:3 energy=-67.07407737140748 pbc="F F F"
Er       0.00000000       0.00000000       0.00000000       0.00000000       0.00000000       0.44145030
Er       0.00000000       0.00000000       4.82424242       0.00000000       0.00000000      -0.44145030
2
Properties=species:S:1:pos:R:3:forces:R:3 energy=-67.04973591007415 pbc="F F F"
Er       0.00000000       0.00000000       0.00000000       0.00000000       0.00000000       0.38774040
Er       0.00000000       0.00000000       4.88303030       0.00000000       0.00000000      -0.38774040
2
Properties=species:S:1:pos:R:3:forces:R:3 energy=-67.02838244042927 pbc="F F F"
Er       0.00000000       0.00000000       0.00000000       0.00000000       0.00000000       0.33964321
Er       0.00000000       0.00000000       4.94181818       0.00000000       0.00000000      -0.33964321
2
Properties=species:S:1:pos:R:3:forces:R:3 energy=-67.0097038658574 pbc="F F F"
Er       0.00000000       0.00000000       0.00000000       0.00000000       0.00000000       0.29631057
Er       0.00000000       0.00000000       5.00060606       0.00000000       0.00000000      -0.29631057
2
Properties=species:S:1:pos:R:3:forces:R:3 energy=-66.99347866623619 pbc="F F F"
Er       0.00000000       0.00000000       0.00000000       0.00000000       0.00000000       0.25602356
Er       0.00000000       0.00000000       5.05939394       0.00000000       0.00000000      -0.25602356
2
Properties=species:S:1:pos:R:3:forces:R:3 energy=-66.97957690427194 pbc="F F F"
Er       0.00000000       0.00000000       0.00000000       0.00000000       0.00000000       0.21716993
Er       0.00000000       0.00000000       5.11818182       0.00000000       0.00000000      -0.21716993
2
Properties=species:S:1:pos:R:3:forces:R:3 energy=-66.96792970000196 pbc="F F F"
Er       0.00000000       0.00000000       0.00000000       0.00000000       0.00000000       0.17932954
Er       0.00000000       0.00000000       5.17696970       0.00000000       0.00000000      -0.17932954
2
Properties=species:S:1:pos:R:3:forces:R:3 energy=-66.95844532646164 pbc="F F F"
Er       0.00000000       0.00000000       0.00000000       0.00000000       0.00000000       0.14408202
Er       0.00000000       0.00000000       5.23575758       0.00000000       0.00000000      -0.14408202
2
Properties=species:S:1:pos:R:3:forces:R:3 energy=-66.95087187741514 pbc="F F F"
Er       0.00000000       0.00000000       0.00000000       0.00000000       0.00000000       0.11501345
Er       0.00000000       0.00000000       5.29454545       0.00000000       0.00000000      -0.11501345
2
Properties=species:S:1:pos:R:3:forces:R:3 energy=-66.9447362337829 pbc="F F F"
Er       0.00000000       0.00000000       0.00000000       0.00000000       0.00000000       0.09536841
Er       0.00000000       0.00000000       5.35333333       0.00000000       0.00000000      -0.09536841
2
Properties=species:S:1:pos:R:3:forces:R:3 energy=-66.93951191824105 pbc="F F F"
Er       0.00000000       0.00000000       0.00000000       0.00000000       0.00000000       0.08287777
Er       0.00000000       0.00000000       5.41212121       0.00000000       0.00000000      -0.08287777
2
Properties=species:S:1:pos:R:3:forces:R:3 energy=-66.93501582848864 pbc="F F F"
Er       0.00000000       0.00000000       0.00000000       0.00000000       0.00000000       0.06931569
Er       0.00000000       0.00000000       5.47090909       0.00000000       0.00000000      -0.06931569
2
Properties=species:S:1:pos:R:3:forces:R:3 energy=-66.93143112384743 pbc="F F F"
Er       0.00000000       0.00000000       0.00000000       0.00000000       0.00000000       0.05238528
Er       0.00000000       0.00000000       5.52969697       0.00000000       0.00000000      -0.05238528
2
Properties=species:S:1:pos:R:3:forces:R:3 energy=-66.92882657182238 pbc="F F F"
Er       0.00000000       0.00000000       0.00000000       0.00000000       0.00000000       0.03639759
Er       0.00000000       0.00000000       5.58848485       0.00000000       0.00000000      -0.03639759
2
Properties=species:S:1:pos:R:3:forces:R:3 energy=-66.92716420759065 pbc="F F F"
Er       0.00000000       0.00000000       0.00000000       0.00000000       0.00000000       0.01972510
Er       0.00000000       0.00000000       5.64727273       0.00000000       0.00000000      -0.01972510
2
Properties=species:S:1:pos:R:3:forces:R:3 energy=-66.92663498776304 pbc="F F F"
Er       0.00000000       0.00000000       0.00000000       0.00000000       0.00000000      -0.00304295
Er       0.00000000       0.00000000       5.70606061       0.00000000       0.00000000       0.00304295
2
Properties=species:S:1:pos:R:3:forces:R:3 energy=-66.92762830290029 pbc="F F F"
Er       0.00000000       0.00000000       0.00000000       0.00000000       0.00000000      -0.03033360
Er       0.00000000       0.00000000       5.76484848       0.00000000       0.00000000       0.03033360
2
Properties=species:S:1:pos:R:3:forces:R:3 energy=-66.92988511630396 pbc="F F F"
Er       0.00000000       0.00000000       0.00000000       0.00000000       0.00000000      -0.04207737
Er       0.00000000       0.00000000       5.82363636       0.00000000       0.00000000       0.04207737
2
Properties=species:S:1:pos:R:3:forces:R:3 energy=-66.9320172931541 pbc="F F F"
Er       0.00000000       0.00000000       0.00000000       0.00000000       0.00000000      -0.02713356
Er       0.00000000       0.00000000       5.88242424       0.00000000       0.00000000       0.02713356
2
Properties=species:S:1:pos:R:3:forces:R:3 energy=-66.93291142335808 pbc="F F F"
Er       0.00000000       0.00000000       0.00000000       0.00000000       0.00000000      -0.00361921
Er       0.00000000       0.00000000       5.94121212       0.00000000       0.00000000       0.00361921
2
Properties=species:S:1:pos:R:3:forces:R:3 energy=-66.93272064283977 pbc="F F F"
Er       0.00000000       0.00000000       0.00000000       0.00000000       0.00000000       0.00669416
Er       0.00000000       0.00000000       6.00000000       0.00000000       0.00000000      -0.00669416
