2
Properties=species:S:1:pos:R:3:forces:R:3 energy=9435.46416450017 pbc="F F F"
Eu       0.00000000       0.00000000       0.00000000       0.00000000       0.00000000 -204309.29687500
Eu       0.00000000       0.00000000       0.18000000       0.00000000       0.00000000  204309.29687500
2
Properties=species:S:1:pos:R:3:forces:R:3 energy=2255.5942914532957 pbc="F F F"
Eu       0.00000000       0.00000000       0.00000000       0.00000000       0.00000000  -68412.32031250
Eu       0.00000000       0.00000000       0.23878788       0.00000000       0.00000000   68412.32031250
2
Properties=species:S:1:pos:R:3:forces:R:3 energy=-324.88996147639205 pbc="F F F"
Eu       0.00000000       0.00000000       0.00000000       0.00000000       0.00000000  -26587.23242188
Eu       0.00000000       0.00000000       0.29757576       0.00000000       0.00000000   26587.23242188
2
Properties=species:S:1:pos:R:3:forces:R:3 energy=-1356.215889210767 pbc="F F F"
Eu       0.00000000       0.00000000       0.00000000       0.00000000       0.00000000  -10793.11621094
Eu       0.00000000       0.00000000       0.35636364       0.00000000       0.00000000   10793.11621094
2
Properties=species:S:1:pos:R:3:forces:R:3 energy=-1759.647285695142 pbc="F F F"
Eu       0.00000000       0.00000000       0.00000000       0.00000000       0.00000000   -3574.42895508
Eu       0.00000000       0.00000000       0.41515152       0.00000000       0.00000000    3574.42895508
2
Properties=species:S:1:pos:R:3:forces:R:3 energy=-1798.4997026865376 pbc="F F F"
Eu       0.00000000       0.00000000       0.00000000       0.00000000       0.00000000    1106.22167969
Eu       0.00000000       0.00000000       0.47393939       0.00000000       0.00000000   -1106.22167969
2
Properties=species:S:1:pos:R:3:forces:R:3 energy=-1651.0482866709126 pbc="F F F"
Eu       0.00000000       0.00000000       0.00000000       0.00000000       0.00000000    3734.79565430
Eu       0.00000000       0.00000000       0.53272727       0.00000000       0.00000000   -3734.79565430
2
Properties=species:S:1:pos:R:3:forces:R:3 energy=-1377.6542437013707 pbc="F F F"
Eu       0.00000000       0.00000000       0.00000000       0.00000000       0.00000000    5428.09277344
Eu       0.00000000       0.00000000       0.59151515       0.00000000       0.00000000   -5428.09277344
2
Properties=species:S:1:pos:R:3:forces:R:3 energy=-1025.9981157708912 pbc="F F F"
Eu       0.00000000       0.00000000       0.00000000       0.00000000       0.00000000    7382.14746094
Eu       0.00000000       0.00000000       0.65030303       0.00000000       0.00000000   -7382.14746094
2
Properties=species:S:1:pos:R:3:forces:R:3 energy=-388.73746513374965 pbc="F F F"
Eu       0.00000000       0.00000000       0.00000000       0.00000000       0.00000000   14681.42578125
Eu       0.00000000       0.00000000       0.70909091       0.00000000       0.00000000  -14681.42578125
2
Properties=species:S:1:pos:R:3:forces:R:3 energy=235.8686750061369 pbc="F F F"
Eu       0.00000000       0.00000000       0.00000000       0.00000000       0.00000000    6933.81103516
Eu       0.00000000       0.00000000       0.76787879       0.00000000       0.00000000   -6933.81103516
2
Properties=species:S:1:pos:R:3:forces:R:3 energy=360.5874555276748 pbc="F F F"
Eu       0.00000000       0.00000000       0.00000000       0.00000000       0.00000000   -1702.54162598
Eu       0.00000000       0.00000000       0.82666667       0.00000000       0.00000000    1702.54162598
2
Properties=species:S:1:pos:R:3:forces:R:3 energy=152.69145944026045 pbc="F F F"
Eu       0.00000000       0.00000000       0.00000000       0.00000000       0.00000000   -4352.32763672
Eu       0.00000000       0.00000000       0.88545455       0.00000000       0.00000000    4352.32763672
2
Properties=species:S:1:pos:R:3:forces:R:3 energy=-24.109005180363035 pbc="F F F"
Eu       0.00000000       0.00000000       0.00000000       0.00000000       0.00000000   -2081.22705078
Eu       0.00000000       0.00000000       0.94424242       0.00000000       0.00000000    2081.22705078
2
Properties=species:S:1:pos:R:3:forces:R:3 energy=-33.76025791427378 pbc="F F F"
Eu       0.00000000       0.00000000       0.00000000       0.00000000       0.00000000    -127.99903870
Eu       0.00000000       0.00000000       1.00303030       0.00000000       0.00000000     127.99903870
2
Properties=species:S:1:pos:R:3:forces:R:3 energy=-40.62971132861045 pbc="F F F"
Eu       0.00000000       0.00000000       0.00000000       0.00000000       0.00000000    -125.83895111
Eu       0.00000000       0.00000000       1.06181818       0.00000000       0.00000000     125.83895111
2
Properties=species:S:1:pos:R:3:forces:R:3 energy=-47.64713302963976 pbc="F F F"
Eu       0.00000000       0.00000000       0.00000000       0.00000000       0.00000000    -110.43196106
Eu       0.00000000       0.00000000       1.12060606       0.00000000       0.00000000     110.43196106
2
Properties=species:S:1:pos:R:3:forces:R:3 energy=-53.46349347397022 pbc="F F F"
Eu       0.00000000       0.00000000       0.00000000       0.00000000       0.00000000     -87.47937012
Eu       0.00000000       0.00000000       1.17939394       0.00000000       0.00000000      87.47937012
2
Properties=species:S:1:pos:R:3:forces:R:3 energy=-57.88689431644651 pbc="F F F"
Eu       0.00000000       0.00000000       0.00000000       0.00000000       0.00000000     -62.13040543
Eu       0.00000000       0.00000000       1.23818182       0.00000000       0.00000000      62.13040543
2
Properties=species:S:1:pos:R:3:forces:R:3 energy=-60.792350811897926 pbc="F F F"
Eu       0.00000000       0.00000000       0.00000000       0.00000000       0.00000000     -38.43141556
Eu       0.00000000       0.00000000       1.29696970       0.00000000       0.00000000      38.43141556
2
Properties=species:S:1:pos:R:3:forces:R:3 energy=-62.67598341320533 pbc="F F F"
Eu       0.00000000       0.00000000       0.00000000       0.00000000       0.00000000     -27.61236191
Eu       0.00000000       0.00000000       1.35575758       0.00000000       0.00000000      27.61236191
2
Properties=species:S:1:pos:R:3:forces:R:3 energy=-64.16771689057886 pbc="F F F"
Eu       0.00000000       0.00000000       0.00000000       0.00000000       0.00000000     -23.54847145
Eu       0.00000000       0.00000000       1.41454545       0.00000000       0.00000000      23.54847145
2
Properties=species:S:1:pos:R:3:forces:R:3 energy=-65.45868664813678 pbc="F F F"
Eu       0.00000000       0.00000000       0.00000000       0.00000000       0.00000000     -20.34896278
Eu       0.00000000       0.00000000       1.47333333       0.00000000       0.00000000      20.34896278
2
Properties=species:S:1:pos:R:3:forces:R:3 energy=-66.54980439614972 pbc="F F F"
Eu       0.00000000       0.00000000       0.00000000       0.00000000       0.00000000     -16.63707733
Eu       0.00000000       0.00000000       1.53212121       0.00000000       0.00000000      16.63707733
2
Properties=species:S:1:pos:R:3:forces:R:3 energy=-67.40443377653493 pbc="F F F"
Eu       0.00000000       0.00000000       0.00000000       0.00000000       0.00000000     -12.49664402
Eu       0.00000000       0.00000000       1.59090909       0.00000000       0.00000000      12.49664402
2
Properties=species:S:1:pos:R:3:forces:R:3 energy=-68.05493104833162 pbc="F F F"
Eu       0.00000000       0.00000000       0.00000000       0.00000000       0.00000000     -10.13992214
Eu       0.00000000       0.00000000       1.64969697       0.00000000       0.00000000      10.13992214
2
Properties=species:S:1:pos:R:3:forces:R:3 energy=-68.65104596423133 pbc="F F F"
Eu       0.00000000       0.00000000       0.00000000       0.00000000       0.00000000     -10.38558769
Eu       0.00000000       0.00000000       1.70848485       0.00000000       0.00000000      10.38558769
2
Properties=species:S:1:pos:R:3:forces:R:3 energy=-69.27525990059186 pbc="F F F"
Eu       0.00000000       0.00000000       0.00000000       0.00000000       0.00000000     -10.71695423
Eu       0.00000000       0.00000000       1.76727273       0.00000000       0.00000000      10.71695423
2
Properties=species:S:1:pos:R:3:forces:R:3 energy=-69.90212882348368 pbc="F F F"
Eu       0.00000000       0.00000000       0.00000000       0.00000000       0.00000000     -10.62642765
Eu       0.00000000       0.00000000       1.82606061       0.00000000       0.00000000      10.62642765
2
Properties=species:S:1:pos:R:3:forces:R:3 energy=-70.53173664832704 pbc="F F F"
Eu       0.00000000       0.00000000       0.00000000       0.00000000       0.00000000     -10.84931374
Eu       0.00000000       0.00000000       1.88484848       0.00000000       0.00000000      10.84931374
2
Properties=species:S:1:pos:R:3:forces:R:3 energy=-71.17946422657742 pbc="F F F"
Eu       0.00000000       0.00000000       0.00000000       0.00000000       0.00000000     -11.15487194
Eu       0.00000000       0.00000000       1.94363636       0.00000000       0.00000000      11.15487194
2
Properties=species:S:1:pos:R:3:forces:R:3 energy=-71.83521023987544 pbc="F F F"
Eu       0.00000000       0.00000000       0.00000000       0.00000000       0.00000000     -11.06096363
Eu       0.00000000       0.00000000       2.00242424       0.00000000       0.00000000      11.06096363
2
Properties=species:S:1:pos:R:3:forces:R:3 energy=-72.46858679317205 pbc="F F F"
Eu       0.00000000       0.00000000       0.00000000       0.00000000       0.00000000     -10.39982605
Eu       0.00000000       0.00000000       2.06121212       0.00000000       0.00000000      10.39982605
2
Properties=species:S:1:pos:R:3:forces:R:3 energy=-73.05042671355017 pbc="F F F"
Eu       0.00000000       0.00000000       0.00000000       0.00000000       0.00000000      -9.35656834
Eu       0.00000000       0.00000000       2.12000000       0.00000000       0.00000000       9.35656834
2
Properties=species:S:1:pos:R:3:forces:R:3 energy=-73.56698946066703 pbc="F F F"
Eu       0.00000000       0.00000000       0.00000000       0.00000000       0.00000000      -8.22184658
Eu       0.00000000       0.00000000       2.17878788       0.00000000       0.00000000       8.22184658
2
Properties=species:S:1:pos:R:3:forces:R:3 energy=-74.01885486771508 pbc="F F F"
Eu       0.00000000       0.00000000       0.00000000       0.00000000       0.00000000      -7.17052412
Eu       0.00000000       0.00000000       2.23757576       0.00000000       0.00000000       7.17052412
2
Properties=species:S:1:pos:R:3:forces:R:3 energy=-74.41220278782218 pbc="F F F"
Eu       0.00000000       0.00000000       0.00000000       0.00000000       0.00000000      -6.22571564
Eu       0.00000000       0.00000000       2.29636364       0.00000000       0.00000000       6.22571564
2
Properties=species:S:1:pos:R:3:forces:R:3 energy=-74.75192370327258 pbc="F F F"
Eu       0.00000000       0.00000000       0.00000000       0.00000000       0.00000000      -5.33630180
Eu       0.00000000       0.00000000       2.35515152       0.00000000       0.00000000       5.33630180
2
Properties=species:S:1:pos:R:3:forces:R:3 energy=-75.03988692739219 pbc="F F F"
Eu       0.00000000       0.00000000       0.00000000       0.00000000       0.00000000      -4.46209764
Eu       0.00000000       0.00000000       2.41393939       0.00000000       0.00000000       4.46209764
2
Properties=species:S:1:pos:R:3:forces:R:3 energy=-75.27699291246937 pbc="F F F"
Eu       0.00000000       0.00000000       0.00000000       0.00000000       0.00000000      -3.61118293
Eu       0.00000000       0.00000000       2.47272727       0.00000000       0.00000000       3.61118293
2
Properties=species:S:1:pos:R:3:forces:R:3 energy=-75.46578257396065 pbc="F F F"
Eu       0.00000000       0.00000000       0.00000000       0.00000000       0.00000000      -2.82695150
Eu       0.00000000       0.00000000       2.53151515       0.00000000       0.00000000       2.82695150
2
Properties=species:S:1:pos:R:3:forces:R:3 energy=-75.61158173451649 pbc="F F F"
Eu       0.00000000       0.00000000       0.00000000       0.00000000       0.00000000      -2.15448189
Eu       0.00000000       0.00000000       2.59030303       0.00000000       0.00000000       2.15448189
2
Properties=species:S:1:pos:R:3:forces:R:3 energy=-75.72173068739016 pbc="F F F"
Eu       0.00000000       0.00000000       0.00000000       0.00000000       0.00000000      -1.61518812
Eu       0.00000000       0.00000000       2.64909091       0.00000000       0.00000000       1.61518812
2
Properties=species:S:1:pos:R:3:forces:R:3 energy=-75.80396689151 pbc="F F F"
Eu       0.00000000       0.00000000       0.00000000       0.00000000       0.00000000      -1.20186102
Eu       0.00000000       0.00000000       2.70787879       0.00000000       0.00000000       1.20186102
2
Properties=species:S:1:pos:R:3:forces:R:3 energy=-75.8650213513711 pbc="F F F"
Eu       0.00000000       0.00000000       0.00000000       0.00000000       0.00000000      -0.88983774
Eu       0.00000000       0.00000000       2.76666667       0.00000000       0.00000000       0.88983774
2
Properties=species:S:1:pos:R:3:forces:R:3 energy=-75.9100543356555 pbc="F F F"
Eu       0.00000000       0.00000000       0.00000000       0.00000000       0.00000000      -0.65277374
Eu       0.00000000       0.00000000       2.82545455       0.00000000       0.00000000       0.65277374
2
Properties=species:S:1:pos:R:3:forces:R:3 energy=-75.94288460198487 pbc="F F F"
Eu       0.00000000       0.00000000       0.00000000       0.00000000       0.00000000      -0.47262278
Eu       0.00000000       0.00000000       2.88424242       0.00000000       0.00000000       0.47262278
2
Properties=species:S:1:pos:R:3:forces:R:3 energy=-75.9665544995582 pbc="F F F"
Eu       0.00000000       0.00000000       0.00000000       0.00000000       0.00000000      -0.34021610
Eu       0.00000000       0.00000000       2.94303030       0.00000000       0.00000000       0.34021610
2
Properties=species:S:1:pos:R:3:forces:R:3 energy=-75.98370459114395 pbc="F F F"
Eu       0.00000000       0.00000000       0.00000000       0.00000000       0.00000000      -0.24982890
Eu       0.00000000       0.00000000       3.00181818       0.00000000       0.00000000       0.24982890
2
Properties=species:S:1:pos:R:3:forces:R:3 energy=-75.99659761277948 pbc="F F F"
Eu       0.00000000       0.00000000       0.00000000       0.00000000       0.00000000      -0.19360065
Eu       0.00000000       0.00000000       3.06060606       0.00000000       0.00000000       0.19360065
2
Properties=species:S:1:pos:R:3:forces:R:3 energy=-76.00690657401945 pbc="F F F"
Eu       0.00000000       0.00000000       0.00000000       0.00000000       0.00000000      -0.15975225
Eu       0.00000000       0.00000000       3.11939394       0.00000000       0.00000000       0.15975225
2
Properties=species:S:1:pos:R:3:forces:R:3 energy=-76.01555710262679 pbc="F F F"
Eu       0.00000000       0.00000000       0.00000000       0.00000000       0.00000000      -0.13506943
Eu       0.00000000       0.00000000       3.17818182       0.00000000       0.00000000       0.13506943
2
Properties=species:S:1:pos:R:3:forces:R:3 energy=-76.022762073984 pbc="F F F"
Eu       0.00000000       0.00000000       0.00000000       0.00000000       0.00000000      -0.10928235
Eu       0.00000000       0.00000000       3.23696970       0.00000000       0.00000000       0.10928235
2
Properties=species:S:1:pos:R:3:forces:R:3 energy=-76.02831013534066 pbc="F F F"
Eu       0.00000000       0.00000000       0.00000000       0.00000000       0.00000000      -0.07847885
Eu       0.00000000       0.00000000       3.29575758       0.00000000       0.00000000       0.07847885
2
Properties=species:S:1:pos:R:3:forces:R:3 energy=-76.03194837011401 pbc="F F F"
Eu       0.00000000       0.00000000       0.00000000       0.00000000       0.00000000      -0.04554264
Eu       0.00000000       0.00000000       3.35454545       0.00000000       0.00000000       0.04554264
2
Properties=species:S:1:pos:R:3:forces:R:3 energy=-76.0337582894774 pbc="F F F"
Eu       0.00000000       0.00000000       0.00000000       0.00000000       0.00000000      -0.01743275
Eu       0.00000000       0.00000000       3.41333333       0.00000000       0.00000000       0.01743275
2
Properties=species:S:1:pos:R:3:forces:R:3 energy=-76.03422571335474 pbc="F F F"
Eu       0.00000000       0.00000000       0.00000000       0.00000000       0.00000000      -0.00067139
Eu       0.00000000       0.00000000       3.47212121       0.00000000       0.00000000       0.00067139
2
Properties=species:S:1:pos:R:3:forces:R:3 energy=-76.03409167827995 pbc="F F F"
Eu       0.00000000       0.00000000       0.00000000       0.00000000       0.00000000       0.00311333
Eu       0.00000000       0.00000000       3.53090909       0.00000000       0.00000000      -0.00311333
2
Properties=species:S:1:pos:R:3:forces:R:3 energy=-76.03399907312703 pbc="F F F"
Eu       0.00000000       0.00000000       0.00000000       0.00000000       0.00000000       0.00002029
Eu       0.00000000       0.00000000       3.58969697       0.00000000       0.00000000      -0.00002029
2
Properties=species:S:1:pos:R:3:forces:R:3 energy=-76.03397295199959 pbc="F F F"
Eu       0.00000000       0.00000000       0.00000000       0.00000000       0.00000000       0.00296041
Eu       0.00000000       0.00000000       3.64848485       0.00000000       0.00000000      -0.00296041
2
Properties=species:S:1:pos:R:3:forces:R:3 energy=-76.03328053885502 pbc="F F F"
Eu       0.00000000       0.00000000       0.00000000       0.00000000       0.00000000       0.02423654
Eu       0.00000000       0.00000000       3.70727273       0.00000000       0.00000000      -0.02423654
2
Properties=species:S:1:pos:R:3:forces:R:3 energy=-76.03069494352486 pbc="F F F"
Eu       0.00000000       0.00000000       0.00000000       0.00000000       0.00000000       0.06699820
Eu       0.00000000       0.00000000       3.76606061       0.00000000       0.00000000      -0.06699820
2
Properties=species:S:1:pos:R:3:forces:R:3 energy=-76.02506459156582 pbc="F F F"
Eu       0.00000000       0.00000000       0.00000000       0.00000000       0.00000000       0.12707680
Eu       0.00000000       0.00000000       3.82484848       0.00000000       0.00000000      -0.12707680
2
Properties=species:S:1:pos:R:3:forces:R:3 energy=-76.015497217329 pbc="F F F"
Eu       0.00000000       0.00000000       0.00000000       0.00000000       0.00000000       0.20047432
Eu       0.00000000       0.00000000       3.88363636       0.00000000       0.00000000      -0.20047432
2
Properties=species:S:1:pos:R:3:forces:R:3 energy=-76.00127707388837 pbc="F F F"
Eu       0.00000000       0.00000000       0.00000000       0.00000000       0.00000000       0.28484774
Eu       0.00000000       0.00000000       3.94242424       0.00000000       0.00000000      -0.28484774
2
Properties=species:S:1:pos:R:3:forces:R:3 energy=-75.9818496200803 pbc="F F F"
Eu       0.00000000       0.00000000       0.00000000       0.00000000       0.00000000       0.37710616
Eu       0.00000000       0.00000000       4.00121212       0.00000000       0.00000000      -0.37710616
2
Properties=species:S:1:pos:R:3:forces:R:3 energy=-75.95687965904985 pbc="F F F"
Eu       0.00000000       0.00000000       0.00000000       0.00000000       0.00000000       0.47239897
Eu       0.00000000       0.00000000       4.06000000       0.00000000       0.00000000      -0.47239897
2
Properties=species:S:1:pos:R:3:forces:R:3 energy=-75.92636335572651 pbc="F F F"
Eu       0.00000000       0.00000000       0.00000000       0.00000000       0.00000000       0.56482339
Eu       0.00000000       0.00000000       4.11878788       0.00000000       0.00000000      -0.56482339
2
Properties=species:S:1:pos:R:3:forces:R:3 energy=-75.89064111018477 pbc="F F F"
Eu       0.00000000       0.00000000       0.00000000       0.00000000       0.00000000       0.64860106
Eu       0.00000000       0.00000000       4.17757576       0.00000000       0.00000000      -0.64860106
2
Properties=species:S:1:pos:R:3:forces:R:3 energy=-75.85036488527844 pbc="F F F"
Eu       0.00000000       0.00000000       0.00000000       0.00000000       0.00000000       0.71898967
Eu       0.00000000       0.00000000       4.23636364       0.00000000       0.00000000      -0.71898967
2
Properties=species:S:1:pos:R:3:forces:R:3 energy=-75.8064315872241 pbc="F F F"
Eu       0.00000000       0.00000000       0.00000000       0.00000000       0.00000000       0.77271354
Eu       0.00000000       0.00000000       4.29515152       0.00000000       0.00000000      -0.77271354
2
Properties=species:S:1:pos:R:3:forces:R:3 energy=-75.75988032472917 pbc="F F F"
Eu       0.00000000       0.00000000       0.00000000       0.00000000       0.00000000       0.80796009
Eu       0.00000000       0.00000000       4.35393939       0.00000000       0.00000000      -0.80796009
2
Properties=species:S:1:pos:R:3:forces:R:3 energy=-75.71181015509431 pbc="F F F"
Eu       0.00000000       0.00000000       0.00000000       0.00000000       0.00000000       0.82408053
Eu       0.00000000       0.00000000       4.41272727       0.00000000       0.00000000      -0.82408053
2
Properties=species:S:1:pos:R:3:forces:R:3 energy=-75.66335778841258 pbc="F F F"
Eu       0.00000000       0.00000000       0.00000000       0.00000000       0.00000000       0.82128769
Eu       0.00000000       0.00000000       4.47151515       0.00000000       0.00000000      -0.82128769
2
Properties=species:S:1:pos:R:3:forces:R:3 energy=-75.6155987665723 pbc="F F F"
Eu       0.00000000       0.00000000       0.00000000       0.00000000       0.00000000       0.80051345
Eu       0.00000000       0.00000000       4.53030303       0.00000000       0.00000000      -0.80051345
2
Properties=species:S:1:pos:R:3:forces:R:3 energy=-75.56955508314802 pbc="F F F"
Eu       0.00000000       0.00000000       0.00000000       0.00000000       0.00000000       0.76348126
Eu       0.00000000       0.00000000       4.58909091       0.00000000       0.00000000      -0.76348126
2
Properties=species:S:1:pos:R:3:forces:R:3 energy=-75.5261037573791 pbc="F F F"
Eu       0.00000000       0.00000000       0.00000000       0.00000000       0.00000000       0.71291804
Eu       0.00000000       0.00000000       4.64787879       0.00000000       0.00000000      -0.71291804
2
Properties=species:S:1:pos:R:3:forces:R:3 energy=-75.4859234252402 pbc="F F F"
Eu       0.00000000       0.00000000       0.00000000       0.00000000       0.00000000       0.65264922
Eu       0.00000000       0.00000000       4.70666667       0.00000000       0.00000000      -0.65264922
2
Properties=species:S:1:pos:R:3:forces:R:3 energy=-75.44946382819867 pbc="F F F"
Eu       0.00000000       0.00000000       0.00000000       0.00000000       0.00000000       0.58743834
Eu       0.00000000       0.00000000       4.76545455       0.00000000       0.00000000      -0.58743834
2
Properties=species:S:1:pos:R:3:forces:R:3 energy=-75.41685428265511 pbc="F F F"
Eu       0.00000000       0.00000000       0.00000000       0.00000000       0.00000000       0.52243823
Eu       0.00000000       0.00000000       4.82424242       0.00000000       0.00000000      -0.52243823
2
Properties=species:S:1:pos:R:3:forces:R:3 energy=-75.38794181107673 pbc="F F F"
Eu       0.00000000       0.00000000       0.00000000       0.00000000       0.00000000       0.46249419
Eu       0.00000000       0.00000000       4.88303030       0.00000000       0.00000000      -0.46249419
2
Properties=species:S:1:pos:R:3:forces:R:3 energy=-75.36229880307026 pbc="F F F"
Eu       0.00000000       0.00000000       0.00000000       0.00000000       0.00000000       0.41151619
Eu       0.00000000       0.00000000       4.94181818       0.00000000       0.00000000      -0.41151619
2
Properties=species:S:1:pos:R:3:forces:R:3 energy=-75.3393221785038 pbc="F F F"
Eu       0.00000000       0.00000000       0.00000000       0.00000000       0.00000000       0.37219810
Eu       0.00000000       0.00000000       5.00060606       0.00000000       0.00000000      -0.37219810
2
Properties=species:S:1:pos:R:3:forces:R:3 energy=-75.31827914486719 pbc="F F F"
Eu       0.00000000       0.00000000       0.00000000       0.00000000       0.00000000       0.34595194
Eu       0.00000000       0.00000000       5.05939394       0.00000000       0.00000000      -0.34595194
2
Properties=species:S:1:pos:R:3:forces:R:3 energy=-75.29839121564642 pbc="F F F"
Eu       0.00000000       0.00000000       0.00000000       0.00000000       0.00000000       0.33278686
Eu       0.00000000       0.00000000       5.11818182       0.00000000       0.00000000      -0.33278686
2
Properties=species:S:1:pos:R:3:forces:R:3 energy=-75.27893328791444 pbc="F F F"
Eu       0.00000000       0.00000000       0.00000000       0.00000000       0.00000000       0.33065104
Eu       0.00000000       0.00000000       5.17696970       0.00000000       0.00000000      -0.33065104
2
Properties=species:S:1:pos:R:3:forces:R:3 energy=-75.25940155553512 pbc="F F F"
Eu       0.00000000       0.00000000       0.00000000       0.00000000       0.00000000       0.33413756
Eu       0.00000000       0.00000000       5.23575758       0.00000000       0.00000000      -0.33413756
2
Properties=species:S:1:pos:R:3:forces:R:3 energy=-75.23971949647998 pbc="F F F"
Eu       0.00000000       0.00000000       0.00000000       0.00000000       0.00000000       0.33382639
Eu       0.00000000       0.00000000       5.29454545       0.00000000       0.00000000      -0.33382639
2
Properties=species:S:1:pos:R:3:forces:R:3 energy=-75.22039046071873 pbc="F F F"
Eu       0.00000000       0.00000000       0.00000000       0.00000000       0.00000000       0.32190236
Eu       0.00000000       0.00000000       5.35333333       0.00000000       0.00000000      -0.32190236
2
Properties=species:S:1:pos:R:3:forces:R:3 energy=-75.20191020684045 pbc="F F F"
Eu       0.00000000       0.00000000       0.00000000       0.00000000       0.00000000       0.30891433
Eu       0.00000000       0.00000000       5.41212121       0.00000000       0.00000000      -0.30891433
2
Properties=species:S:1:pos:R:3:forces:R:3 energy=-75.18350042572916 pbc="F F F"
Eu       0.00000000       0.00000000       0.00000000       0.00000000       0.00000000       0.32328856
Eu       0.00000000       0.00000000       5.47090909       0.00000000       0.00000000      -0.32328856
2
Properties=species:S:1:pos:R:3:forces:R:3 energy=-75.16355126762147 pbc="F F F"
Eu       0.00000000       0.00000000       0.00000000       0.00000000       0.00000000       0.35323861
Eu       0.00000000       0.00000000       5.52969697       0.00000000       0.00000000      -0.35323861
2
Properties=species:S:1:pos:R:3:forces:R:3 energy=-75.14271885411138 pbc="F F F"
Eu       0.00000000       0.00000000       0.00000000       0.00000000       0.00000000       0.34752458
Eu       0.00000000       0.00000000       5.58848485       0.00000000       0.00000000      -0.34752458
2
Properties=species:S:1:pos:R:3:forces:R:3 energy=-75.12329971531621 pbc="F F F"
Eu       0.00000000       0.00000000       0.00000000       0.00000000       0.00000000       0.31306905
Eu       0.00000000       0.00000000       5.64727273       0.00000000       0.00000000      -0.31306905
2
Properties=species:S:1:pos:R:3:forces:R:3 energy=-75.10521765866093 pbc="F F F"
Eu       0.00000000       0.00000000       0.00000000       0.00000000       0.00000000       0.31278291
Eu       0.00000000       0.00000000       5.70606061       0.00000000       0.00000000      -0.31278291
2
Properties=species:S:1:pos:R:3:forces:R:3 energy=-75.08544400458597 pbc="F F F"
Eu       0.00000000       0.00000000       0.00000000       0.00000000       0.00000000       0.36048198
Eu       0.00000000       0.00000000       5.76484848       0.00000000       0.00000000      -0.36048198
2
Properties=species:S:1:pos:R:3:forces:R:3 energy=-75.06406293936043 pbc="F F F"
Eu       0.00000000       0.00000000       0.00000000       0.00000000       0.00000000       0.34815565
Eu       0.00000000       0.00000000       5.82363636       0.00000000       0.00000000      -0.34815565
2
Properties=species:S:1:pos:R:3:forces:R:3 energy=-75.04700281614944 pbc="F F F"
Eu       0.00000000       0.00000000       0.00000000       0.00000000       0.00000000       0.21903248
Eu       0.00000000       0.00000000       5.88242424       0.00000000       0.00000000      -0.21903248
2
Properties=species:S:1:pos:R:3:forces:R:3 energy=-75.038711977446 pbc="F F F"
Eu       0.00000000       0.00000000       0.00000000       0.00000000       0.00000000       0.06921113
Eu       0.00000000       0.00000000       5.94121212       0.00000000       0.00000000      -0.06921113
2
Properties=species:S:1:pos:R:3:forces:R:3 energy=-75.03706227200661 pbc="F F F"
Eu       0.00000000       0.00000000       0.00000000       0.00000000       0.00000000       0.00739401
Eu       0.00000000       0.00000000       6.00000000       0.00000000       0.00000000      -0.00739401
