2
Properties=species:S:1:pos:R:3:forces:R:3 energy=7672.2264598884485 pbc="F F F"
F        0.00000000       0.00000000       0.00000000       0.00000000       0.00000000  -51773.32421875
F        0.00000000       0.00000000       0.10000000       0.00000000       0.00000000   51773.32421875
2
Properties=species:S:1:pos:R:3:forces:R:3 energy=5819.5706981696985 pbc="F F F"
F        0.00000000       0.00000000       0.00000000       0.00000000       0.00000000  -21112.85546875
F        0.00000000       0.00000000       0.15959596       0.00000000       0.00000000   21112.85546875
2
Properties=species:S:1:pos:R:3:forces:R:3 energy=4570.9417919196985 pbc="F F F"
F        0.00000000       0.00000000       0.00000000       0.00000000       0.00000000  -22640.74609375
F        0.00000000       0.00000000       0.21919192       0.00000000       0.00000000   22640.74609375
2
Properties=species:S:1:pos:R:3:forces:R:3 energy=3069.740864185422 pbc="F F F"
F        0.00000000       0.00000000       0.00000000       0.00000000       0.00000000  -26423.48242188
F        0.00000000       0.00000000       0.27878788       0.00000000       0.00000000   26423.48242188
2
Properties=species:S:1:pos:R:3:forces:R:3 energy=2040.923359302808 pbc="F F F"
F        0.00000000       0.00000000       0.00000000       0.00000000       0.00000000   -9932.87597656
F        0.00000000       0.00000000       0.33838384       0.00000000       0.00000000    9932.87597656
2
Properties=species:S:1:pos:R:3:forces:R:3 energy=1335.595478443928 pbc="F F F"
F        0.00000000       0.00000000       0.00000000       0.00000000       0.00000000   -3027.07861328
F        0.00000000       0.00000000       0.39797980       0.00000000       0.00000000    3027.07861328
2
Properties=species:S:1:pos:R:3:forces:R:3 energy=951.2226757104438 pbc="F F F"
F        0.00000000       0.00000000       0.00000000       0.00000000       0.00000000   -6955.63916016
F        0.00000000       0.00000000       0.45757576       0.00000000       0.00000000    6955.63916016
2
Properties=species:S:1:pos:R:3:forces:R:3 energy=400.3376049114445 pbc="F F F"
F        0.00000000       0.00000000       0.00000000       0.00000000       0.00000000   -8882.45800781
F        0.00000000       0.00000000       0.51717172       0.00000000       0.00000000    8882.45800781
2
Properties=species:S:1:pos:R:3:forces:R:3 energy=3.167055998749253 pbc="F F F"
F        0.00000000       0.00000000       0.00000000       0.00000000       0.00000000   -4240.41015625
F        0.00000000       0.00000000       0.57676768       0.00000000       0.00000000    4240.41015625
2
Properties=species:S:1:pos:R:3:forces:R:3 energy=-99.84984167418129 pbc="F F F"
F        0.00000000       0.00000000       0.00000000       0.00000000       0.00000000     443.61785889
F        0.00000000       0.00000000       0.63636364       0.00000000       0.00000000    -443.61785889
2
Properties=species:S:1:pos:R:3:forces:R:3 energy=-59.562076162639094 pbc="F F F"
F        0.00000000       0.00000000       0.00000000       0.00000000       0.00000000     187.16748047
F        0.00000000       0.00000000       0.69595960       0.00000000       0.00000000    -187.16748047
2
Properties=species:S:1:pos:R:3:forces:R:3 energy=112.51937526664179 pbc="F F F"
F        0.00000000       0.00000000       0.00000000       0.00000000       0.00000000    2794.05419922
F        0.00000000       0.00000000       0.75555556       0.00000000       0.00000000   -2794.05419922
2
Properties=species:S:1:pos:R:3:forces:R:3 energy=192.79449888263207 pbc="F F F"
F        0.00000000       0.00000000       0.00000000       0.00000000       0.00000000    -113.38633728
F        0.00000000       0.00000000       0.81515152       0.00000000       0.00000000     113.38633728
2
Properties=species:S:1:pos:R:3:forces:R:3 energy=129.64853333477262 pbc="F F F"
F        0.00000000       0.00000000       0.00000000       0.00000000       0.00000000   -1586.04150391
F        0.00000000       0.00000000       0.87474747       0.00000000       0.00000000    1586.04150391
2
Properties=species:S:1:pos:R:3:forces:R:3 energy=44.8196072882416 pbc="F F F"
F        0.00000000       0.00000000       0.00000000       0.00000000       0.00000000   -1057.17248535
F        0.00000000       0.00000000       0.93434343       0.00000000       0.00000000    1057.17248535
2
Properties=species:S:1:pos:R:3:forces:R:3 energy=12.326311673528853 pbc="F F F"
F        0.00000000       0.00000000       0.00000000       0.00000000       0.00000000    -109.86847687
F        0.00000000       0.00000000       0.99393939       0.00000000       0.00000000     109.86847687
2
Properties=species:S:1:pos:R:3:forces:R:3 energy=5.119983830801134 pbc="F F F"
F        0.00000000       0.00000000       0.00000000       0.00000000       0.00000000    -111.92885590
F        0.00000000       0.00000000       1.05353535       0.00000000       0.00000000     111.92885590
2
Properties=species:S:1:pos:R:3:forces:R:3 energy=-0.09518979864549978 pbc="F F F"
F        0.00000000       0.00000000       0.00000000       0.00000000       0.00000000     -65.11340332
F        0.00000000       0.00000000       1.11313131       0.00000000       0.00000000      65.11340332
2
Properties=species:S:1:pos:R:3:forces:R:3 energy=-3.023945452914318 pbc="F F F"
F        0.00000000       0.00000000       0.00000000       0.00000000       0.00000000     -35.70024109
F        0.00000000       0.00000000       1.17272727       0.00000000       0.00000000      35.70024109
2
Properties=species:S:1:pos:R:3:forces:R:3 energy=-4.575812840352184 pbc="F F F"
F        0.00000000       0.00000000       0.00000000       0.00000000       0.00000000     -17.97792244
F        0.00000000       0.00000000       1.23232323       0.00000000       0.00000000      17.97792244
2
Properties=species:S:1:pos:R:3:forces:R:3 energy=-5.331123825792758 pbc="F F F"
F        0.00000000       0.00000000       0.00000000       0.00000000       0.00000000      -8.45459652
F        0.00000000       0.00000000       1.29191919       0.00000000       0.00000000       8.45459652
2
Properties=species:S:1:pos:R:3:forces:R:3 energy=-5.677741720570181 pbc="F F F"
F        0.00000000       0.00000000       0.00000000       0.00000000       0.00000000      -3.69176531
F        0.00000000       0.00000000       1.35151515       0.00000000       0.00000000       3.69176531
2
Properties=species:S:1:pos:R:3:forces:R:3 energy=-5.80819418343992 pbc="F F F"
F        0.00000000       0.00000000       0.00000000       0.00000000       0.00000000      -0.88395572
F        0.00000000       0.00000000       1.41111111       0.00000000       0.00000000       0.88395572
2
Properties=species:S:1:pos:R:3:forces:R:3 energy=-5.80406851211778 pbc="F F F"
F        0.00000000       0.00000000       0.00000000       0.00000000       0.00000000       0.85777789
F        0.00000000       0.00000000       1.47070707       0.00000000       0.00000000      -0.85777789
2
Properties=species:S:1:pos:R:3:forces:R:3 energy=-5.72240665249427 pbc="F F F"
F        0.00000000       0.00000000       0.00000000       0.00000000       0.00000000       1.76734209
F        0.00000000       0.00000000       1.53030303       0.00000000       0.00000000      -1.76734209
2
Properties=species:S:1:pos:R:3:forces:R:3 energy=-5.608179125599242 pbc="F F F"
F        0.00000000       0.00000000       0.00000000       0.00000000       0.00000000       1.93425930
F        0.00000000       0.00000000       1.58989899       0.00000000       0.00000000      -1.93425930
2
Properties=species:S:1:pos:R:3:forces:R:3 energy=-5.503321479046939 pbc="F F F"
F        0.00000000       0.00000000       0.00000000       0.00000000       0.00000000       1.53482115
F        0.00000000       0.00000000       1.64949495       0.00000000       0.00000000      -1.53482115
2
Properties=species:S:1:pos:R:3:forces:R:3 energy=-5.430616341981721 pbc="F F F"
F        0.00000000       0.00000000       0.00000000       0.00000000       0.00000000       0.83896017
F        0.00000000       0.00000000       1.70909091       0.00000000       0.00000000      -0.83896017
2
Properties=species:S:1:pos:R:3:forces:R:3 energy=-5.411529265970234 pbc="F F F"
F        0.00000000       0.00000000       0.00000000       0.00000000       0.00000000      -0.23778811
F        0.00000000       0.00000000       1.76868687       0.00000000       0.00000000       0.23778811
2
Properties=species:S:1:pos:R:3:forces:R:3 energy=-5.457186939434577 pbc="F F F"
F        0.00000000       0.00000000       0.00000000       0.00000000       0.00000000      -1.23024952
F        0.00000000       0.00000000       1.82828283       0.00000000       0.00000000       1.23024952
2
Properties=species:S:1:pos:R:3:forces:R:3 energy=-5.547082986741775 pbc="F F F"
F        0.00000000       0.00000000       0.00000000       0.00000000       0.00000000      -1.67804253
F        0.00000000       0.00000000       1.88787879       0.00000000       0.00000000       1.67804253
2
Properties=species:S:1:pos:R:3:forces:R:3 energy=-5.644076144550272 pbc="F F F"
F        0.00000000       0.00000000       0.00000000       0.00000000       0.00000000      -1.47230649
F        0.00000000       0.00000000       1.94747475       0.00000000       0.00000000       1.47230649
2
Properties=species:S:1:pos:R:3:forces:R:3 energy=-5.711826887342312 pbc="F F F"
F        0.00000000       0.00000000       0.00000000       0.00000000       0.00000000      -0.73094392
F        0.00000000       0.00000000       2.00707071       0.00000000       0.00000000       0.73094392
2
Properties=species:S:1:pos:R:3:forces:R:3 energy=-5.725806718050994 pbc="F F F"
F        0.00000000       0.00000000       0.00000000       0.00000000       0.00000000       0.28037575
F        0.00000000       0.00000000       2.06666667       0.00000000       0.00000000      -0.28037575
2
Properties=species:S:1:pos:R:3:forces:R:3 energy=-5.679215171471703 pbc="F F F"
F        0.00000000       0.00000000       0.00000000       0.00000000       0.00000000       1.25389755
F        0.00000000       0.00000000       2.12626263       0.00000000       0.00000000      -1.25389755
2
Properties=species:S:1:pos:R:3:forces:R:3 energy=-5.581788783279986 pbc="F F F"
F        0.00000000       0.00000000       0.00000000       0.00000000       0.00000000       1.95862114
F        0.00000000       0.00000000       2.18585859       0.00000000       0.00000000      -1.95862114
2
Properties=species:S:1:pos:R:3:forces:R:3 energy=-5.453050420969737 pbc="F F F"
F        0.00000000       0.00000000       0.00000000       0.00000000       0.00000000       2.30082512
F        0.00000000       0.00000000       2.24545455       0.00000000       0.00000000      -2.30082512
2
Properties=species:S:1:pos:R:3:forces:R:3 energy=-5.314185554710713 pbc="F F F"
F        0.00000000       0.00000000       0.00000000       0.00000000       0.00000000       2.31115603
F        0.00000000       0.00000000       2.30505051       0.00000000       0.00000000      -2.31115603
2
Properties=species:S:1:pos:R:3:forces:R:3 energy=-5.182198684103054 pbc="F F F"
F        0.00000000       0.00000000       0.00000000       0.00000000       0.00000000       2.08920217
F        0.00000000       0.00000000       2.36464646       0.00000000       0.00000000      -2.08920217
2
Properties=species:S:1:pos:R:3:forces:R:3 energy=-5.0675430108571495 pbc="F F F"
F        0.00000000       0.00000000       0.00000000       0.00000000       0.00000000       1.74695933
F        0.00000000       0.00000000       2.42424242       0.00000000       0.00000000      -1.74695933
2
Properties=species:S:1:pos:R:3:forces:R:3 energy=-4.974555802998416 pbc="F F F"
F        0.00000000       0.00000000       0.00000000       0.00000000       0.00000000       1.37437224
F        0.00000000       0.00000000       2.48383838       0.00000000       0.00000000      -1.37437224
2
Properties=species:S:1:pos:R:3:forces:R:3 energy=-4.903183602001096 pbc="F F F"
F        0.00000000       0.00000000       0.00000000       0.00000000       0.00000000       1.02827203
F        0.00000000       0.00000000       2.54343434       0.00000000       0.00000000      -1.02827203
2
Properties=species:S:1:pos:R:3:forces:R:3 energy=-4.850912462376513 pbc="F F F"
F        0.00000000       0.00000000       0.00000000       0.00000000       0.00000000       0.73596686
F        0.00000000       0.00000000       2.60303030       0.00000000       0.00000000      -0.73596686
2
Properties=species:S:1:pos:R:3:forces:R:3 energy=-4.814249966609477 pbc="F F F"
F        0.00000000       0.00000000       0.00000000       0.00000000       0.00000000       0.50437260
F        0.00000000       0.00000000       2.66262626       0.00000000       0.00000000      -0.50437260
2
Properties=species:S:1:pos:R:3:forces:R:3 energy=-4.789674610019153 pbc="F F F"
F        0.00000000       0.00000000       0.00000000       0.00000000       0.00000000       0.32901666
F        0.00000000       0.00000000       2.72222222       0.00000000       0.00000000      -0.32901666
2
Properties=species:S:1:pos:R:3:forces:R:3 energy=-4.774100717780266 pbc="F F F"
F        0.00000000       0.00000000       0.00000000       0.00000000       0.00000000       0.20058727
F        0.00000000       0.00000000       2.78181818       0.00000000       0.00000000      -0.20058727
2
Properties=species:S:1:pos:R:3:forces:R:3 energy=-4.765037235755552 pbc="F F F"
F        0.00000000       0.00000000       0.00000000       0.00000000       0.00000000       0.10889644
F        0.00000000       0.00000000       2.84141414       0.00000000       0.00000000      -0.10889644
2
Properties=species:S:1:pos:R:3:forces:R:3 energy=-4.760574378857345 pbc="F F F"
F        0.00000000       0.00000000       0.00000000       0.00000000       0.00000000       0.04482032
F        0.00000000       0.00000000       2.90101010       0.00000000       0.00000000      -0.04482032
2
Properties=species:S:1:pos:R:3:forces:R:3 energy=-4.759293989324619 pbc="F F F"
F        0.00000000       0.00000000       0.00000000       0.00000000       0.00000000       0.00100044
F        0.00000000       0.00000000       2.96060606       0.00000000       0.00000000      -0.00100044
2
Properties=species:S:1:pos:R:3:forces:R:3 energy=-4.760163202432698 pbc="F F F"
F        0.00000000       0.00000000       0.00000000       0.00000000       0.00000000      -0.02810219
F        0.00000000       0.00000000       3.02020202       0.00000000       0.00000000       0.02810219
2
Properties=species:S:1:pos:R:3:forces:R:3 energy=-4.762430498665608 pbc="F F F"
F        0.00000000       0.00000000       0.00000000       0.00000000       0.00000000      -0.04642526
F        0.00000000       0.00000000       3.07979798       0.00000000       0.00000000       0.04642526
2
Properties=species:S:1:pos:R:3:forces:R:3 energy=-4.76553653605845 pbc="F F F"
F        0.00000000       0.00000000       0.00000000       0.00000000       0.00000000      -0.05662163
F        0.00000000       0.00000000       3.13939394       0.00000000       0.00000000       0.05662163
2
Properties=species:S:1:pos:R:3:forces:R:3 energy=-4.7690526415698 pbc="F F F"
F        0.00000000       0.00000000       0.00000000       0.00000000       0.00000000      -0.06037325
F        0.00000000       0.00000000       3.19898990       0.00000000       0.00000000       0.06037325
2
Properties=species:S:1:pos:R:3:forces:R:3 energy=-4.772623588939819 pbc="F F F"
F        0.00000000       0.00000000       0.00000000       0.00000000       0.00000000      -0.05865658
F        0.00000000       0.00000000       3.25858586       0.00000000       0.00000000       0.05865658
2
Properties=species:S:1:pos:R:3:forces:R:3 energy=-4.775944238025254 pbc="F F F"
F        0.00000000       0.00000000       0.00000000       0.00000000       0.00000000      -0.05199274
F        0.00000000       0.00000000       3.31818182       0.00000000       0.00000000       0.05199274
2
Properties=species:S:1:pos:R:3:forces:R:3 energy=-4.778728538305278 pbc="F F F"
F        0.00000000       0.00000000       0.00000000       0.00000000       0.00000000      -0.04065466
F        0.00000000       0.00000000       3.37777778       0.00000000       0.00000000       0.04065466
2
Properties=species:S:1:pos:R:3:forces:R:3 energy=-4.780700948287498 pbc="F F F"
F        0.00000000       0.00000000       0.00000000       0.00000000       0.00000000      -0.02483563
F        0.00000000       0.00000000       3.43737374       0.00000000       0.00000000       0.02483563
2
Properties=species:S:1:pos:R:3:forces:R:3 energy=-4.7816050174878635 pbc="F F F"
F        0.00000000       0.00000000       0.00000000       0.00000000       0.00000000      -0.00481765
F        0.00000000       0.00000000       3.49696970       0.00000000       0.00000000       0.00481765
2
Properties=species:S:1:pos:R:3:forces:R:3 energy=-4.781201478389079 pbc="F F F"
F        0.00000000       0.00000000       0.00000000       0.00000000       0.00000000       0.01892456
F        0.00000000       0.00000000       3.55656566       0.00000000       0.00000000      -0.01892456
2
Properties=species:S:1:pos:R:3:forces:R:3 energy=-4.779289702726792 pbc="F F F"
F        0.00000000       0.00000000       0.00000000       0.00000000       0.00000000       0.04565249
F        0.00000000       0.00000000       3.61616162       0.00000000       0.00000000      -0.04565249
2
Properties=species:S:1:pos:R:3:forces:R:3 energy=-4.775721529371209 pbc="F F F"
F        0.00000000       0.00000000       0.00000000       0.00000000       0.00000000       0.07434108
F        0.00000000       0.00000000       3.67575758       0.00000000       0.00000000      -0.07434108
2
Properties=species:S:1:pos:R:3:forces:R:3 energy=-4.770414610718809 pbc="F F F"
F        0.00000000       0.00000000       0.00000000       0.00000000       0.00000000       0.10373583
F        0.00000000       0.00000000       3.73535354       0.00000000       0.00000000      -0.10373583
2
Properties=species:S:1:pos:R:3:forces:R:3 energy=-4.763369579819978 pbc="F F F"
F        0.00000000       0.00000000       0.00000000       0.00000000       0.00000000       0.13247284
F        0.00000000       0.00000000       3.79494949       0.00000000       0.00000000      -0.13247284
2
Properties=species:S:1:pos:R:3:forces:R:3 energy=-4.754664322591439 pbc="F F F"
F        0.00000000       0.00000000       0.00000000       0.00000000       0.00000000       0.15923993
F        0.00000000       0.00000000       3.85454545       0.00000000       0.00000000      -0.15923993
2
Properties=species:S:1:pos:R:3:forces:R:3 energy=-4.744450637481281 pbc="F F F"
F        0.00000000       0.00000000       0.00000000       0.00000000       0.00000000       0.18295895
F        0.00000000       0.00000000       3.91414141       0.00000000       0.00000000      -0.18295895
2
Properties=species:S:1:pos:R:3:forces:R:3 energy=-4.732932297890852 pbc="F F F"
F        0.00000000       0.00000000       0.00000000       0.00000000       0.00000000       0.20293252
F        0.00000000       0.00000000       3.97373737       0.00000000       0.00000000      -0.20293252
2
Properties=species:S:1:pos:R:3:forces:R:3 energy=-4.720342160377871 pbc="F F F"
F        0.00000000       0.00000000       0.00000000       0.00000000       0.00000000       0.21889588
F        0.00000000       0.00000000       4.03333333       0.00000000       0.00000000      -0.21889588
2
Properties=species:S:1:pos:R:3:forces:R:3 energy=-4.706920228216758 pbc="F F F"
F        0.00000000       0.00000000       0.00000000       0.00000000       0.00000000       0.23092593
F        0.00000000       0.00000000       4.09292929       0.00000000       0.00000000      -0.23092593
2
Properties=species:S:1:pos:R:3:forces:R:3 energy=-4.692891712781086 pbc="F F F"
F        0.00000000       0.00000000       0.00000000       0.00000000       0.00000000       0.23924719
F        0.00000000       0.00000000       4.15252525       0.00000000       0.00000000      -0.23924719
2
Properties=species:S:1:pos:R:3:forces:R:3 energy=-4.678473230991221 pbc="F F F"
F        0.00000000       0.00000000       0.00000000       0.00000000       0.00000000       0.24403726
F        0.00000000       0.00000000       4.21212121       0.00000000       0.00000000      -0.24403726
2
Properties=species:S:1:pos:R:3:forces:R:3 energy=-4.663873757256235 pbc="F F F"
F        0.00000000       0.00000000       0.00000000       0.00000000       0.00000000       0.24531591
F        0.00000000       0.00000000       4.27171717       0.00000000       0.00000000      -0.24531591
2
Properties=species:S:1:pos:R:3:forces:R:3 energy=-4.649305589293122 pbc="F F F"
F        0.00000000       0.00000000       0.00000000       0.00000000       0.00000000       0.24298802
F        0.00000000       0.00000000       4.33131313       0.00000000       0.00000000      -0.24298802
2
Properties=species:S:1:pos:R:3:forces:R:3 energy=-4.634985301355643 pbc="F F F"
F        0.00000000       0.00000000       0.00000000       0.00000000       0.00000000       0.23697805
F        0.00000000       0.00000000       4.39090909       0.00000000       0.00000000      -0.23697805
2
Properties=species:S:1:pos:R:3:forces:R:3 energy=-4.6211304061762295 pbc="F F F"
F        0.00000000       0.00000000       0.00000000       0.00000000       0.00000000       0.22739306
F        0.00000000       0.00000000       4.45050505       0.00000000       0.00000000      -0.22739306
2
Properties=species:S:1:pos:R:3:forces:R:3 energy=-4.60794552708437 pbc="F F F"
F        0.00000000       0.00000000       0.00000000       0.00000000       0.00000000       0.21462430
F        0.00000000       0.00000000       4.51010101       0.00000000       0.00000000      -0.21462430
2
Properties=species:S:1:pos:R:3:forces:R:3 energy=-4.59559903214441 pbc="F F F"
F        0.00000000       0.00000000       0.00000000       0.00000000       0.00000000       0.19934650
F        0.00000000       0.00000000       4.56969697       0.00000000       0.00000000      -0.19934650
2
Properties=species:S:1:pos:R:3:forces:R:3 energy=-4.584216361801144 pbc="F F F"
F        0.00000000       0.00000000       0.00000000       0.00000000       0.00000000       0.18245679
F        0.00000000       0.00000000       4.62929293       0.00000000       0.00000000      -0.18245679
2
Properties=species:S:1:pos:R:3:forces:R:3 energy=-4.573864769199807 pbc="F F F"
F        0.00000000       0.00000000       0.00000000       0.00000000       0.00000000       0.16491884
F        0.00000000       0.00000000       4.68888889       0.00000000       0.00000000      -0.16491884
2
Properties=species:S:1:pos:R:3:forces:R:3 energy=-4.564554753370397 pbc="F F F"
F        0.00000000       0.00000000       0.00000000       0.00000000       0.00000000       0.14761068
F        0.00000000       0.00000000       4.74848485       0.00000000       0.00000000      -0.14761068
2
Properties=species:S:1:pos:R:3:forces:R:3 energy=-4.5562529329399934 pbc="F F F"
F        0.00000000       0.00000000       0.00000000       0.00000000       0.00000000       0.13119932
F        0.00000000       0.00000000       4.80808081       0.00000000       0.00000000      -0.13119932
2
Properties=species:S:1:pos:R:3:forces:R:3 energy=-4.5488906333593775 pbc="F F F"
F        0.00000000       0.00000000       0.00000000       0.00000000       0.00000000       0.11610521
F        0.00000000       0.00000000       4.86767677       0.00000000       0.00000000      -0.11610521
2
Properties=species:S:1:pos:R:3:forces:R:3 energy=-4.542382482834488 pbc="F F F"
F        0.00000000       0.00000000       0.00000000       0.00000000       0.00000000       0.10259004
F        0.00000000       0.00000000       4.92727273       0.00000000       0.00000000      -0.10259004
2
Properties=species:S:1:pos:R:3:forces:R:3 energy=-4.536626891267212 pbc="F F F"
F        0.00000000       0.00000000       0.00000000       0.00000000       0.00000000       0.09088800
F        0.00000000       0.00000000       4.98686869       0.00000000       0.00000000      -0.09088800
2
Properties=species:S:1:pos:R:3:forces:R:3 energy=-4.531507004795905 pbc="F F F"
F        0.00000000       0.00000000       0.00000000       0.00000000       0.00000000       0.08134609
F        0.00000000       0.00000000       5.04646465       0.00000000       0.00000000      -0.08134609
2
Properties=species:S:1:pos:R:3:forces:R:3 energy=-4.526880215971875 pbc="F F F"
F        0.00000000       0.00000000       0.00000000       0.00000000       0.00000000       0.07436631
F        0.00000000       0.00000000       5.10606061       0.00000000       0.00000000      -0.07436631
2
Properties=species:S:1:pos:R:3:forces:R:3 energy=-4.522587702630928 pbc="F F F"
F        0.00000000       0.00000000       0.00000000       0.00000000       0.00000000       0.07009607
F        0.00000000       0.00000000       5.16565657       0.00000000       0.00000000      -0.07009607
2
Properties=species:S:1:pos:R:3:forces:R:3 energy=-4.5184825613104485 pbc="F F F"
F        0.00000000       0.00000000       0.00000000       0.00000000       0.00000000       0.06794101
F        0.00000000       0.00000000       5.22525253       0.00000000       0.00000000      -0.06794101
2
Properties=species:S:1:pos:R:3:forces:R:3 energy=-4.514479398561341 pbc="F F F"
F        0.00000000       0.00000000       0.00000000       0.00000000       0.00000000       0.06632806
F        0.00000000       0.00000000       5.28484848       0.00000000       0.00000000      -0.06632806
2
Properties=species:S:1:pos:R:3:forces:R:3 energy=-4.510602493357154 pbc="F F F"
F        0.00000000       0.00000000       0.00000000       0.00000000       0.00000000       0.06348746
F        0.00000000       0.00000000       5.34444444       0.00000000       0.00000000      -0.06348746
2
Properties=species:S:1:pos:R:3:forces:R:3 energy=-4.506930960375412 pbc="F F F"
F        0.00000000       0.00000000       0.00000000       0.00000000       0.00000000       0.05985884
F        0.00000000       0.00000000       5.40404040       0.00000000       0.00000000      -0.05985884
2
Properties=species:S:1:pos:R:3:forces:R:3 energy=-4.503396571908737 pbc="F F F"
F        0.00000000       0.00000000       0.00000000       0.00000000       0.00000000       0.05964361
F        0.00000000       0.00000000       5.46363636       0.00000000       0.00000000      -0.05964361
2
Properties=species:S:1:pos:R:3:forces:R:3 energy=-4.4997670686880555 pbc="F F F"
F        0.00000000       0.00000000       0.00000000       0.00000000       0.00000000       0.06151711
F        0.00000000       0.00000000       5.52323232       0.00000000       0.00000000      -0.06151711
2
Properties=species:S:1:pos:R:3:forces:R:3 energy=-4.49633900496643 pbc="F F F"
F        0.00000000       0.00000000       0.00000000       0.00000000       0.00000000       0.05025820
F        0.00000000       0.00000000       5.58282828       0.00000000       0.00000000      -0.05025820
2
Properties=species:S:1:pos:R:3:forces:R:3 energy=-4.494089382203269 pbc="F F F"
F        0.00000000       0.00000000       0.00000000       0.00000000       0.00000000       0.02407300
F        0.00000000       0.00000000       5.64242424       0.00000000       0.00000000      -0.02407300
2
Properties=species:S:1:pos:R:3:forces:R:3 energy=-4.4933924812863 pbc="F F F"
F        0.00000000       0.00000000       0.00000000       0.00000000       0.00000000       0.00160988
F        0.00000000       0.00000000       5.70202020       0.00000000       0.00000000      -0.00160988
2
Properties=species:S:1:pos:R:3:forces:R:3 energy=-4.493531104122675 pbc="F F F"
F        0.00000000       0.00000000       0.00000000       0.00000000       0.00000000      -0.00343118
F        0.00000000       0.00000000       5.76161616       0.00000000       0.00000000       0.00343118
2
Properties=species:S:1:pos:R:3:forces:R:3 energy=-4.493624498724088 pbc="F F F"
F        0.00000000       0.00000000       0.00000000       0.00000000       0.00000000       0.00035114
F        0.00000000       0.00000000       5.82121212       0.00000000       0.00000000      -0.00035114
2
Properties=species:S:1:pos:R:3:forces:R:3 energy=-4.493556761599272 pbc="F F F"
F        0.00000000       0.00000000       0.00000000       0.00000000       0.00000000       0.00134562
F        0.00000000       0.00000000       5.88080808       0.00000000       0.00000000      -0.00134562
2
Properties=species:S:1:pos:R:3:forces:R:3 energy=-4.493498569750212 pbc="F F F"
F        0.00000000       0.00000000       0.00000000       0.00000000       0.00000000       0.00053735
F        0.00000000       0.00000000       5.94040404       0.00000000       0.00000000      -0.00053735
2
Properties=species:S:1:pos:R:3:forces:R:3 energy=-4.49348327268599 pbc="F F F"
F        0.00000000       0.00000000       0.00000000       0.00000000       0.00000000       0.00011699
F        0.00000000       0.00000000       6.00000000       0.00000000       0.00000000      -0.00011699
