2
Properties=species:S:1:pos:R:3:forces:R:3 energy=5401.7118114509485 pbc="F F F"
F        0.00000000       0.00000000       0.00000000       0.00000000       0.00000000  -20236.39843750
F        0.00000000       0.00000000       0.18000000       0.00000000       0.00000000   20236.39843750
2
Properties=species:S:1:pos:R:3:forces:R:3 energy=4112.015522388548 pbc="F F F"
F        0.00000000       0.00000000       0.00000000       0.00000000       0.00000000  -24083.66796875
F        0.00000000       0.00000000       0.23878788       0.00000000       0.00000000   24083.66796875
2
Properties=species:S:1:pos:R:3:forces:R:3 energy=2569.8504833261463 pbc="F F F"
F        0.00000000       0.00000000       0.00000000       0.00000000       0.00000000  -24268.07226562
F        0.00000000       0.00000000       0.29757576       0.00000000       0.00000000   24268.07226562
2
Properties=species:S:1:pos:R:3:forces:R:3 energy=1540.844990162183 pbc="F F F"
F        0.00000000       0.00000000       0.00000000       0.00000000       0.00000000  -27007.27343750
F        0.00000000       0.00000000       0.35636364       0.00000000       0.00000000   27007.27343750
2
Properties=species:S:1:pos:R:3:forces:R:3 energy=1255.8316844988133 pbc="F F F"
F        0.00000000       0.00000000       0.00000000       0.00000000       0.00000000   -6110.59326172
F        0.00000000       0.00000000       0.41515152       0.00000000       0.00000000    6110.59326172
2
Properties=species:S:1:pos:R:3:forces:R:3 energy=812.8297313749023 pbc="F F F"
F        0.00000000       0.00000000       0.00000000       0.00000000       0.00000000   -9231.86132812
F        0.00000000       0.00000000       0.47393939       0.00000000       0.00000000    9231.86132812
2
Properties=species:S:1:pos:R:3:forces:R:3 energy=270.6992992480749 pbc="F F F"
F        0.00000000       0.00000000       0.00000000       0.00000000       0.00000000   -7763.68750000
F        0.00000000       0.00000000       0.53272727       0.00000000       0.00000000    7763.68750000
2
Properties=species:S:1:pos:R:3:forces:R:3 energy=-50.90566214352595 pbc="F F F"
F        0.00000000       0.00000000       0.00000000       0.00000000       0.00000000   -3100.58007812
F        0.00000000       0.00000000       0.59151515       0.00000000       0.00000000    3100.58007812
2
Properties=species:S:1:pos:R:3:forces:R:3 energy=-91.04833563001792 pbc="F F F"
F        0.00000000       0.00000000       0.00000000       0.00000000       0.00000000     761.58728027
F        0.00000000       0.00000000       0.65030303       0.00000000       0.00000000    -761.58728027
2
Properties=species:S:1:pos:R:3:forces:R:3 energy=-20.63465268299138 pbc="F F F"
F        0.00000000       0.00000000       0.00000000       0.00000000       0.00000000    3230.62207031
F        0.00000000       0.00000000       0.70909091       0.00000000       0.00000000   -3230.62207031
2
Properties=species:S:1:pos:R:3:forces:R:3 energy=143.29365963299855 pbc="F F F"
F        0.00000000       0.00000000       0.00000000       0.00000000       0.00000000    2207.72973633
F        0.00000000       0.00000000       0.76787879       0.00000000       0.00000000   -2207.72973633
2
Properties=species:S:1:pos:R:3:forces:R:3 energy=188.6772350933395 pbc="F F F"
F        0.00000000       0.00000000       0.00000000       0.00000000       0.00000000    -589.17272949
F        0.00000000       0.00000000       0.82666667       0.00000000       0.00000000     589.17272949
2
Properties=species:S:1:pos:R:3:forces:R:3 energy=112.57692384393896 pbc="F F F"
F        0.00000000       0.00000000       0.00000000       0.00000000       0.00000000   -1592.08520508
F        0.00000000       0.00000000       0.88545455       0.00000000       0.00000000    1592.08520508
2
Properties=species:S:1:pos:R:3:forces:R:3 energy=35.17916158713062 pbc="F F F"
F        0.00000000       0.00000000       0.00000000       0.00000000       0.00000000    -894.07867432
F        0.00000000       0.00000000       0.94424242       0.00000000       0.00000000     894.07867432
2
Properties=species:S:1:pos:R:3:forces:R:3 energy=11.305328940920738 pbc="F F F"
F        0.00000000       0.00000000       0.00000000       0.00000000       0.00000000    -116.28710938
F        0.00000000       0.00000000       1.00303030       0.00000000       0.00000000     116.28710938
2
Properties=species:S:1:pos:R:3:forces:R:3 energy=4.220957925429256 pbc="F F F"
F        0.00000000       0.00000000       0.00000000       0.00000000       0.00000000    -105.09038544
F        0.00000000       0.00000000       1.06181818       0.00000000       0.00000000     105.09038544
2
Properties=species:S:1:pos:R:3:forces:R:3 energy=-0.5644452331639176 pbc="F F F"
F        0.00000000       0.00000000       0.00000000       0.00000000       0.00000000     -60.50511932
F        0.00000000       0.00000000       1.12060606       0.00000000       0.00000000      60.50511932
2
Properties=species:S:1:pos:R:3:forces:R:3 energy=-3.2536419531582803 pbc="F F F"
F        0.00000000       0.00000000       0.00000000       0.00000000       0.00000000     -33.22819901
F        0.00000000       0.00000000       1.17939394       0.00000000       0.00000000      33.22819901
2
Properties=species:S:1:pos:R:3:forces:R:3 energy=-4.677442567164897 pbc="F F F"
F        0.00000000       0.00000000       0.00000000       0.00000000       0.00000000     -16.73042107
F        0.00000000       0.00000000       1.23818182       0.00000000       0.00000000      16.73042107
2
Properties=species:S:1:pos:R:3:forces:R:3 energy=-5.372443677750418 pbc="F F F"
F        0.00000000       0.00000000       0.00000000       0.00000000       0.00000000      -7.91404247
F        0.00000000       0.00000000       1.29696970       0.00000000       0.00000000       7.91404247
2
Properties=species:S:1:pos:R:3:forces:R:3 energy=-5.6928856217738755 pbc="F F F"
F        0.00000000       0.00000000       0.00000000       0.00000000       0.00000000      -3.44912934
F        0.00000000       0.00000000       1.35575758       0.00000000       0.00000000       3.44912934
2
Properties=species:S:1:pos:R:3:forces:R:3 energy=-5.811010461604894 pbc="F F F"
F        0.00000000       0.00000000       0.00000000       0.00000000       0.00000000      -0.75607604
F        0.00000000       0.00000000       1.41454545       0.00000000       0.00000000       0.75607604
2
Properties=species:S:1:pos:R:3:forces:R:3 energy=-5.801744097975163 pbc="F F F"
F        0.00000000       0.00000000       0.00000000       0.00000000       0.00000000       0.91300672
F        0.00000000       0.00000000       1.47333333       0.00000000       0.00000000      -0.91300672
2
Properties=species:S:1:pos:R:3:forces:R:3 energy=-5.71917783823756 pbc="F F F"
F        0.00000000       0.00000000       0.00000000       0.00000000       0.00000000       1.78416646
F        0.00000000       0.00000000       1.53212121       0.00000000       0.00000000      -1.78416646
2
Properties=species:S:1:pos:R:3:forces:R:3 energy=-5.606227952712432 pbc="F F F"
F        0.00000000       0.00000000       0.00000000       0.00000000       0.00000000       1.93067026
F        0.00000000       0.00000000       1.59090909       0.00000000       0.00000000      -1.93067026
2
Properties=species:S:1:pos:R:3:forces:R:3 energy=-5.503013695866501 pbc="F F F"
F        0.00000000       0.00000000       0.00000000       0.00000000       0.00000000       1.53303671
F        0.00000000       0.00000000       1.64969697       0.00000000       0.00000000      -1.53303671
2
Properties=species:S:1:pos:R:3:forces:R:3 energy=-5.431129299239517 pbc="F F F"
F        0.00000000       0.00000000       0.00000000       0.00000000       0.00000000       0.84823322
F        0.00000000       0.00000000       1.70848485       0.00000000       0.00000000      -0.84823322
2
Properties=species:S:1:pos:R:3:forces:R:3 energy=-5.411212362024924 pbc="F F F"
F        0.00000000       0.00000000       0.00000000       0.00000000       0.00000000      -0.21067965
F        0.00000000       0.00000000       1.76727273       0.00000000       0.00000000       0.21067965
2
Properties=species:S:1:pos:R:3:forces:R:3 energy=-5.454485876940793 pbc="F F F"
F        0.00000000       0.00000000       0.00000000       0.00000000       0.00000000      -1.20136762
F        0.00000000       0.00000000       1.82606061       0.00000000       0.00000000       1.20136762
2
Properties=species:S:1:pos:R:3:forces:R:3 energy=-5.5420078353106925 pbc="F F F"
F        0.00000000       0.00000000       0.00000000       0.00000000       0.00000000      -1.67122674
F        0.00000000       0.00000000       1.88484848       0.00000000       0.00000000       1.67122674
2
Properties=species:S:1:pos:R:3:forces:R:3 energy=-5.638364778525608 pbc="F F F"
F        0.00000000       0.00000000       0.00000000       0.00000000       0.00000000      -1.50386953
F        0.00000000       0.00000000       1.94363636       0.00000000       0.00000000       1.50386953
2
Properties=species:S:1:pos:R:3:forces:R:3 energy=-5.70826295623172 pbc="F F F"
F        0.00000000       0.00000000       0.00000000       0.00000000       0.00000000      -0.80249590
F        0.00000000       0.00000000       2.00242424       0.00000000       0.00000000       0.80249590
2
Properties=species:S:1:pos:R:3:forces:R:3 energy=-5.727074757044414 pbc="F F F"
F        0.00000000       0.00000000       0.00000000       0.00000000       0.00000000       0.18498060
F        0.00000000       0.00000000       2.06121212       0.00000000       0.00000000      -0.18498060
2
Properties=species:S:1:pos:R:3:forces:R:3 energy=-5.686780003035331 pbc="F F F"
F        0.00000000       0.00000000       0.00000000       0.00000000       0.00000000       1.16128993
F        0.00000000       0.00000000       2.12000000       0.00000000       0.00000000      -1.16128993
2
Properties=species:S:1:pos:R:3:forces:R:3 energy=-5.595410081585081 pbc="F F F"
F        0.00000000       0.00000000       0.00000000       0.00000000       0.00000000       1.89344895
F        0.00000000       0.00000000       2.17878788       0.00000000       0.00000000      -1.89344895
2
Properties=species:S:1:pos:R:3:forces:R:3 energy=-5.471086445481055 pbc="F F F"
F        0.00000000       0.00000000       0.00000000       0.00000000       0.00000000       2.27625728
F        0.00000000       0.00000000       2.23757576       0.00000000       0.00000000      -2.27625728
2
Properties=species:S:1:pos:R:3:forces:R:3 energy=-5.334337014866378 pbc="F F F"
F        0.00000000       0.00000000       0.00000000       0.00000000       0.00000000       2.32684827
F        0.00000000       0.00000000       2.29636364       0.00000000       0.00000000      -2.32684827
2
Properties=species:S:1:pos:R:3:forces:R:3 energy=-5.202258325743336 pbc="F F F"
F        0.00000000       0.00000000       0.00000000       0.00000000       0.00000000       2.13537288
F        0.00000000       0.00000000       2.35515152       0.00000000       0.00000000      -2.13537288
2
Properties=species:S:1:pos:R:3:forces:R:3 energy=-5.085871019901365 pbc="F F F"
F        0.00000000       0.00000000       0.00000000       0.00000000       0.00000000       1.81039858
F        0.00000000       0.00000000       2.41393939       0.00000000       0.00000000      -1.81039858
2
Properties=species:S:1:pos:R:3:forces:R:3 energy=-4.990208074442495 pbc="F F F"
F        0.00000000       0.00000000       0.00000000       0.00000000       0.00000000       1.44308519
F        0.00000000       0.00000000       2.47272727       0.00000000       0.00000000      -1.44308519
2
Properties=species:S:1:pos:R:3:forces:R:3 energy=-4.915827816676732 pbc="F F F"
F        0.00000000       0.00000000       0.00000000       0.00000000       0.00000000       1.09369779
F        0.00000000       0.00000000       2.53151515       0.00000000       0.00000000      -1.09369779
2
Properties=species:S:1:pos:R:3:forces:R:3 energy=-4.86064116668615 pbc="F F F"
F        0.00000000       0.00000000       0.00000000       0.00000000       0.00000000       0.79329950
F        0.00000000       0.00000000       2.59030303       0.00000000       0.00000000      -0.79329950
2
Properties=species:S:1:pos:R:3:forces:R:3 energy=-4.821393651667339 pbc="F F F"
F        0.00000000       0.00000000       0.00000000       0.00000000       0.00000000       0.55176395
F        0.00000000       0.00000000       2.64909091       0.00000000       0.00000000      -0.55176395
2
Properties=species:S:1:pos:R:3:forces:R:3 energy=-4.794659612990161 pbc="F F F"
F        0.00000000       0.00000000       0.00000000       0.00000000       0.00000000       0.36654362
F        0.00000000       0.00000000       2.70787879       0.00000000       0.00000000      -0.36654362
2
Properties=species:S:1:pos:R:3:forces:R:3 energy=-4.7773557620940155 pbc="F F F"
F        0.00000000       0.00000000       0.00000000       0.00000000       0.00000000       0.22935872
F        0.00000000       0.00000000       2.76666667       0.00000000       0.00000000      -0.22935872
2
Properties=species:S:1:pos:R:3:forces:R:3 energy=-4.766943839051916 pbc="F F F"
F        0.00000000       0.00000000       0.00000000       0.00000000       0.00000000       0.13039346
F        0.00000000       0.00000000       2.82545455       0.00000000       0.00000000      -0.13039346
2
Properties=species:S:1:pos:R:3:forces:R:3 energy=-4.761454455418348 pbc="F F F"
F        0.00000000       0.00000000       0.00000000       0.00000000       0.00000000       0.06051873
F        0.00000000       0.00000000       2.88424242       0.00000000       0.00000000      -0.06051873
2
Properties=species:S:1:pos:R:3:forces:R:3 energy=-4.7594079401519505 pbc="F F F"
F        0.00000000       0.00000000       0.00000000       0.00000000       0.00000000       0.01217639
F        0.00000000       0.00000000       2.94303030       0.00000000       0.00000000      -0.01217639
2
Properties=species:S:1:pos:R:3:forces:R:3 energy=-4.7597156376895855 pbc="F F F"
F        0.00000000       0.00000000       0.00000000       0.00000000       0.00000000      -0.02043002
F        0.00000000       0.00000000       3.00181818       0.00000000       0.00000000       0.02043002
2
Properties=species:S:1:pos:R:3:forces:R:3 energy=-4.761585018242805 pbc="F F F"
F        0.00000000       0.00000000       0.00000000       0.00000000       0.00000000      -0.04151688
F        0.00000000       0.00000000       3.06060606       0.00000000       0.00000000       0.04151688
2
Properties=species:S:1:pos:R:3:forces:R:3 energy=-4.76442907992572 pbc="F F F"
F        0.00000000       0.00000000       0.00000000       0.00000000       0.00000000      -0.05398535
F        0.00000000       0.00000000       3.11939394       0.00000000       0.00000000       0.05398535
2
Properties=species:S:1:pos:R:3:forces:R:3 energy=-4.767801978213513 pbc="F F F"
F        0.00000000       0.00000000       0.00000000       0.00000000       0.00000000      -0.05972371
F        0.00000000       0.00000000       3.17818182       0.00000000       0.00000000       0.05972371
2
Properties=species:S:1:pos:R:3:forces:R:3 energy=-4.771342282320604 pbc="F F F"
F        0.00000000       0.00000000       0.00000000       0.00000000       0.00000000      -0.05987065
F        0.00000000       0.00000000       3.23696970       0.00000000       0.00000000       0.05987065
2
Properties=species:S:1:pos:R:3:forces:R:3 energy=-4.774743890905848 pbc="F F F"
F        0.00000000       0.00000000       0.00000000       0.00000000       0.00000000      -0.05506017
F        0.00000000       0.00000000       3.29575758       0.00000000       0.00000000       0.05506017
2
Properties=species:S:1:pos:R:3:forces:R:3 energy=-4.777725037459262 pbc="F F F"
F        0.00000000       0.00000000       0.00000000       0.00000000       0.00000000      -0.04561727
F        0.00000000       0.00000000       3.35454545       0.00000000       0.00000000       0.04561727
2
Properties=species:S:1:pos:R:3:forces:R:3 energy=-4.78002018347637 pbc="F F F"
F        0.00000000       0.00000000       0.00000000       0.00000000       0.00000000      -0.03173954
F        0.00000000       0.00000000       3.41333333       0.00000000       0.00000000       0.03173954
2
Properties=species:S:1:pos:R:3:forces:R:3 energy=-4.78137382323794 pbc="F F F"
F        0.00000000       0.00000000       0.00000000       0.00000000       0.00000000      -0.01365040
F        0.00000000       0.00000000       3.47212121       0.00000000       0.00000000       0.01365040
2
Properties=species:S:1:pos:R:3:forces:R:3 energy=-4.7815490617311225 pbc="F F F"
F        0.00000000       0.00000000       0.00000000       0.00000000       0.00000000       0.00828912
F        0.00000000       0.00000000       3.53090909       0.00000000       0.00000000      -0.00828912
2
Properties=species:S:1:pos:R:3:forces:R:3 energy=-4.7803362002921475 pbc="F F F"
F        0.00000000       0.00000000       0.00000000       0.00000000       0.00000000       0.03347512
F        0.00000000       0.00000000       3.58969697       0.00000000       0.00000000      -0.03347512
2
Properties=species:S:1:pos:R:3:forces:R:3 energy=-4.777566085076929 pbc="F F F"
F        0.00000000       0.00000000       0.00000000       0.00000000       0.00000000       0.06104345
F        0.00000000       0.00000000       3.64848485       0.00000000       0.00000000      -0.06104345
2
Properties=species:S:1:pos:R:3:forces:R:3 energy=-4.7731339477310355 pbc="F F F"
F        0.00000000       0.00000000       0.00000000       0.00000000       0.00000000       0.08988336
F        0.00000000       0.00000000       3.70727273       0.00000000       0.00000000      -0.08988336
2
Properties=species:S:1:pos:R:3:forces:R:3 energy=-4.766998448745547 pbc="F F F"
F        0.00000000       0.00000000       0.00000000       0.00000000       0.00000000       0.11871001
F        0.00000000       0.00000000       3.76606061       0.00000000       0.00000000      -0.11871001
2
Properties=species:S:1:pos:R:3:forces:R:3 energy=-4.759202179375965 pbc="F F F"
F        0.00000000       0.00000000       0.00000000       0.00000000       0.00000000       0.14622392
F        0.00000000       0.00000000       3.82484848       0.00000000       0.00000000      -0.14622392
2
Properties=species:S:1:pos:R:3:forces:R:3 energy=-4.749855445417055 pbc="F F F"
F        0.00000000       0.00000000       0.00000000       0.00000000       0.00000000       0.17125271
F        0.00000000       0.00000000       3.88363636       0.00000000       0.00000000      -0.17125271
2
Properties=species:S:1:pos:R:3:forces:R:3 energy=-4.739132927907312 pbc="F F F"
F        0.00000000       0.00000000       0.00000000       0.00000000       0.00000000       0.19293143
F        0.00000000       0.00000000       3.94242424       0.00000000       0.00000000      -0.19293143
2
Properties=species:S:1:pos:R:3:forces:R:3 energy=-4.727246975298383 pbc="F F F"
F        0.00000000       0.00000000       0.00000000       0.00000000       0.00000000       0.21079236
F        0.00000000       0.00000000       4.00121212       0.00000000       0.00000000      -0.21079236
2
Properties=species:S:1:pos:R:3:forces:R:3 energy=-4.714425666520424 pbc="F F F"
F        0.00000000       0.00000000       0.00000000       0.00000000       0.00000000       0.22475238
F        0.00000000       0.00000000       4.06000000       0.00000000       0.00000000      -0.22475238
2
Properties=species:S:1:pos:R:3:forces:R:3 energy=-4.700894689833665 pbc="F F F"
F        0.00000000       0.00000000       0.00000000       0.00000000       0.00000000       0.23497808
F        0.00000000       0.00000000       4.11878788       0.00000000       0.00000000      -0.23497808
2
Properties=species:S:1:pos:R:3:forces:R:3 energy=-4.686866371613991 pbc="F F F"
F        0.00000000       0.00000000       0.00000000       0.00000000       0.00000000       0.24168539
F        0.00000000       0.00000000       4.17757576       0.00000000       0.00000000      -0.24168539
2
Properties=species:S:1:pos:R:3:forces:R:3 energy=-4.672544443685087 pbc="F F F"
F        0.00000000       0.00000000       0.00000000       0.00000000       0.00000000       0.24498610
F        0.00000000       0.00000000       4.23636364       0.00000000       0.00000000      -0.24498610
2
Properties=species:S:1:pos:R:3:forces:R:3 energy=-4.6581292862503 pbc="F F F"
F        0.00000000       0.00000000       0.00000000       0.00000000       0.00000000       0.24483708
F        0.00000000       0.00000000       4.29515152       0.00000000       0.00000000      -0.24483708
2
Properties=species:S:1:pos:R:3:forces:R:3 energy=-4.643827466368211 pbc="F F F"
F        0.00000000       0.00000000       0.00000000       0.00000000       0.00000000       0.24113840
F        0.00000000       0.00000000       4.35393939       0.00000000       0.00000000      -0.24113840
2
Properties=species:S:1:pos:R:3:forces:R:3 energy=-4.629847918949107 pbc="F F F"
F        0.00000000       0.00000000       0.00000000       0.00000000       0.00000000       0.23386839
F        0.00000000       0.00000000       4.41272727       0.00000000       0.00000000      -0.23386839
2
Properties=species:S:1:pos:R:3:forces:R:3 energy=-4.61639622698596 pbc="F F F"
F        0.00000000       0.00000000       0.00000000       0.00000000       0.00000000       0.22322685
F        0.00000000       0.00000000       4.47151515       0.00000000       0.00000000      -0.22322685
2
Properties=species:S:1:pos:R:3:forces:R:3 energy=-4.603658409882997 pbc="F F F"
F        0.00000000       0.00000000       0.00000000       0.00000000       0.00000000       0.20968464
F        0.00000000       0.00000000       4.53030303       0.00000000       0.00000000      -0.20968464
2
Properties=species:S:1:pos:R:3:forces:R:3 energy=-4.5917851869385355 pbc="F F F"
F        0.00000000       0.00000000       0.00000000       0.00000000       0.00000000       0.19398062
F        0.00000000       0.00000000       4.58909091       0.00000000       0.00000000      -0.19398062
2
Properties=species:S:1:pos:R:3:forces:R:3 energy=-4.580876243005686 pbc="F F F"
F        0.00000000       0.00000000       0.00000000       0.00000000       0.00000000       0.17701288
F        0.00000000       0.00000000       4.64787879       0.00000000       0.00000000      -0.17701288
2
Properties=species:S:1:pos:R:3:forces:R:3 energy=-4.570979277292898 pbc="F F F"
F        0.00000000       0.00000000       0.00000000       0.00000000       0.00000000       0.15969712
F        0.00000000       0.00000000       4.70666667       0.00000000       0.00000000      -0.15969712
2
Properties=species:S:1:pos:R:3:forces:R:3 energy=-4.56209095632057 pbc="F F F"
F        0.00000000       0.00000000       0.00000000       0.00000000       0.00000000       0.14282386
F        0.00000000       0.00000000       4.76545455       0.00000000       0.00000000      -0.14282386
2
Properties=species:S:1:pos:R:3:forces:R:3 energy=-4.554166453213314 pbc="F F F"
F        0.00000000       0.00000000       0.00000000       0.00000000       0.00000000       0.12696236
F        0.00000000       0.00000000       4.82424242       0.00000000       0.00000000      -0.12696236
2
Properties=species:S:1:pos:R:3:forces:R:3 energy=-4.547136614530619 pbc="F F F"
F        0.00000000       0.00000000       0.00000000       0.00000000       0.00000000       0.11246583
F        0.00000000       0.00000000       4.88303030       0.00000000       0.00000000      -0.11246583
2
Properties=species:S:1:pos:R:3:forces:R:3 energy=-4.540912252815961 pbc="F F F"
F        0.00000000       0.00000000       0.00000000       0.00000000       0.00000000       0.09955468
F        0.00000000       0.00000000       4.94181818       0.00000000       0.00000000      -0.09955468
2
Properties=species:S:1:pos:R:3:forces:R:3 energy=-4.535394638449708 pbc="F F F"
F        0.00000000       0.00000000       0.00000000       0.00000000       0.00000000       0.08848171
F        0.00000000       0.00000000       5.00060606       0.00000000       0.00000000      -0.08848171
2
Properties=species:S:1:pos:R:3:forces:R:3 energy=-4.530465487330976 pbc="F F F"
F        0.00000000       0.00000000       0.00000000       0.00000000       0.00000000       0.07960128
F        0.00000000       0.00000000       5.05939394       0.00000000       0.00000000      -0.07960128
2
Properties=species:S:1:pos:R:3:forces:R:3 energy=-4.52598505394972 pbc="F F F"
F        0.00000000       0.00000000       0.00000000       0.00000000       0.00000000       0.07328227
F        0.00000000       0.00000000       5.11818182       0.00000000       0.00000000      -0.07328227
2
Properties=species:S:1:pos:R:3:forces:R:3 energy=-4.521798331457726 pbc="F F F"
F        0.00000000       0.00000000       0.00000000       0.00000000       0.00000000       0.06955835
F        0.00000000       0.00000000       5.17696970       0.00000000       0.00000000      -0.06955835
2
Properties=species:S:1:pos:R:3:forces:R:3 energy=-4.517770338336027 pbc="F F F"
F        0.00000000       0.00000000       0.00000000       0.00000000       0.00000000       0.06767374
F        0.00000000       0.00000000       5.23575758       0.00000000       0.00000000      -0.06767374
2
Properties=species:S:1:pos:R:3:forces:R:3 energy=-4.513838094263865 pbc="F F F"
F        0.00000000       0.00000000       0.00000000       0.00000000       0.00000000       0.06598148
F        0.00000000       0.00000000       5.29454545       0.00000000       0.00000000      -0.06598148
2
Properties=species:S:1:pos:R:3:forces:R:3 energy=-4.510040661651607 pbc="F F F"
F        0.00000000       0.00000000       0.00000000       0.00000000       0.00000000       0.06292897
F        0.00000000       0.00000000       5.35333333       0.00000000       0.00000000      -0.06292897
2
Properties=species:S:1:pos:R:3:forces:R:3 energy=-4.50644857354335 pbc="F F F"
F        0.00000000       0.00000000       0.00000000       0.00000000       0.00000000       0.05952045
F        0.00000000       0.00000000       5.41212121       0.00000000       0.00000000      -0.05952045
2
Properties=species:S:1:pos:R:3:forces:R:3 energy=-4.502963086484989 pbc="F F F"
F        0.00000000       0.00000000       0.00000000       0.00000000       0.00000000       0.05996685
F        0.00000000       0.00000000       5.47090909       0.00000000       0.00000000      -0.05996685
2
Properties=species:S:1:pos:R:3:forces:R:3 energy=-4.499369109065174 pbc="F F F"
F        0.00000000       0.00000000       0.00000000       0.00000000       0.00000000       0.06121259
F        0.00000000       0.00000000       5.52969697       0.00000000       0.00000000      -0.06121259
2
Properties=species:S:1:pos:R:3:forces:R:3 energy=-4.496059994705138 pbc="F F F"
F        0.00000000       0.00000000       0.00000000       0.00000000       0.00000000       0.04819914
F        0.00000000       0.00000000       5.58848485       0.00000000       0.00000000      -0.04819914
2
Properties=species:S:1:pos:R:3:forces:R:3 energy=-4.493977461067712 pbc="F F F"
F        0.00000000       0.00000000       0.00000000       0.00000000       0.00000000       0.02181243
F        0.00000000       0.00000000       5.64727273       0.00000000       0.00000000      -0.02181243
2
Properties=species:S:1:pos:R:3:forces:R:3 energy=-4.493387548354511 pbc="F F F"
F        0.00000000       0.00000000       0.00000000       0.00000000       0.00000000       0.00069944
F        0.00000000       0.00000000       5.70606061       0.00000000       0.00000000      -0.00069944
2
Properties=species:S:1:pos:R:3:forces:R:3 energy=-4.493542542144367 pbc="F F F"
F        0.00000000       0.00000000       0.00000000       0.00000000       0.00000000      -0.00329030
F        0.00000000       0.00000000       5.76484848       0.00000000       0.00000000       0.00329030
2
Properties=species:S:1:pos:R:3:forces:R:3 energy=-4.493623681209932 pbc="F F F"
F        0.00000000       0.00000000       0.00000000       0.00000000       0.00000000       0.00047083
F        0.00000000       0.00000000       5.82363636       0.00000000       0.00000000      -0.00047083
2
Properties=species:S:1:pos:R:3:forces:R:3 energy=-4.493554163733978 pbc="F F F"
F        0.00000000       0.00000000       0.00000000       0.00000000       0.00000000       0.00133324
F        0.00000000       0.00000000       5.88242424       0.00000000       0.00000000      -0.00133324
2
Properties=species:S:1:pos:R:3:forces:R:3 energy=-4.493498469208982 pbc="F F F"
F        0.00000000       0.00000000       0.00000000       0.00000000       0.00000000       0.00052628
F        0.00000000       0.00000000       5.94121212       0.00000000       0.00000000      -0.00052628
2
Properties=species:S:1:pos:R:3:forces:R:3 energy=-4.49348327268599 pbc="F F F"
F        0.00000000       0.00000000       0.00000000       0.00000000       0.00000000       0.00011699
F        0.00000000       0.00000000       6.00000000       0.00000000       0.00000000      -0.00011699
