2
Properties=species:S:1:pos:R:3:forces:R:3 energy=5401.72645988825 pbc="F F F"
F        0.00000000       0.00000000       0.00000000       0.00000000       0.00000000  -20236.42968750
F        0.00000000       0.00000000       0.18000000       0.00000000       0.00000000   20236.42968750
2
Properties=species:S:1:pos:R:3:forces:R:3 energy=4112.013569263349 pbc="F F F"
F        0.00000000       0.00000000       0.00000000       0.00000000       0.00000000  -24083.71289062
F        0.00000000       0.00000000       0.23878788       0.00000000       0.00000000   24083.71289062
2
Properties=species:S:1:pos:R:3:forces:R:3 energy=2569.8482860603235 pbc="F F F"
F        0.00000000       0.00000000       0.00000000       0.00000000       0.00000000  -24268.06250000
F        0.00000000       0.00000000       0.29757576       0.00000000       0.00000000   24268.06250000
2
Properties=species:S:1:pos:R:3:forces:R:3 energy=1540.8435253183338 pbc="F F F"
F        0.00000000       0.00000000       0.00000000       0.00000000       0.00000000  -27007.17382812
F        0.00000000       0.00000000       0.35636364       0.00000000       0.00000000   27007.17382812
2
Properties=species:S:1:pos:R:3:forces:R:3 energy=1255.8277782486155 pbc="F F F"
F        0.00000000       0.00000000       0.00000000       0.00000000       0.00000000   -6110.56298828
F        0.00000000       0.00000000       0.41515152       0.00000000       0.00000000    6110.56298828
2
Properties=species:S:1:pos:R:3:forces:R:3 energy=812.8269847926731 pbc="F F F"
F        0.00000000       0.00000000       0.00000000       0.00000000       0.00000000   -9231.83105469
F        0.00000000       0.00000000       0.47393939       0.00000000       0.00000000    9231.83105469
2
Properties=species:S:1:pos:R:3:forces:R:3 energy=270.6979259569603 pbc="F F F"
F        0.00000000       0.00000000       0.00000000       0.00000000       0.00000000   -7763.68750000
F        0.00000000       0.00000000       0.53272727       0.00000000       0.00000000    7763.68750000
2
Properties=species:S:1:pos:R:3:forces:R:3 energy=-50.90609320441596 pbc="F F F"
F        0.00000000       0.00000000       0.00000000       0.00000000       0.00000000   -3100.57055664
F        0.00000000       0.00000000       0.59151515       0.00000000       0.00000000    3100.57055664
2
Properties=species:S:1:pos:R:3:forces:R:3 energy=-91.04828985384873 pbc="F F F"
F        0.00000000       0.00000000       0.00000000       0.00000000       0.00000000     761.58819580
F        0.00000000       0.00000000       0.65030303       0.00000000       0.00000000    -761.58819580
2
Properties=species:S:1:pos:R:3:forces:R:3 energy=-20.634643146347212 pbc="F F F"
F        0.00000000       0.00000000       0.00000000       0.00000000       0.00000000    3230.63110352
F        0.00000000       0.00000000       0.70909091       0.00000000       0.00000000   -3230.63110352
2
Properties=species:S:1:pos:R:3:forces:R:3 energy=143.29382747948026 pbc="F F F"
F        0.00000000       0.00000000       0.00000000       0.00000000       0.00000000    2207.72583008
F        0.00000000       0.00000000       0.76787879       0.00000000       0.00000000   -2207.72583008
2
Properties=species:S:1:pos:R:3:forces:R:3 energy=188.67729612829777 pbc="F F F"
F        0.00000000       0.00000000       0.00000000       0.00000000       0.00000000    -589.17382812
F        0.00000000       0.00000000       0.82666667       0.00000000       0.00000000     589.17382812
2
Properties=species:S:1:pos:R:3:forces:R:3 energy=112.57695436151708 pbc="F F F"
F        0.00000000       0.00000000       0.00000000       0.00000000       0.00000000   -1592.08459473
F        0.00000000       0.00000000       0.88545455       0.00000000       0.00000000    1592.08459473
2
Properties=species:S:1:pos:R:3:forces:R:3 energy=35.179211178195075 pbc="F F F"
F        0.00000000       0.00000000       0.00000000       0.00000000       0.00000000    -894.08154297
F        0.00000000       0.00000000       0.94424242       0.00000000       0.00000000     894.08154297
2
Properties=species:S:1:pos:R:3:forces:R:3 energy=11.305348014407066 pbc="F F F"
F        0.00000000       0.00000000       0.00000000       0.00000000       0.00000000    -116.28718567
F        0.00000000       0.00000000       1.00303030       0.00000000       0.00000000     116.28718567
2
Properties=species:S:1:pos:R:3:forces:R:3 energy=4.220966508498104 pbc="F F F"
F        0.00000000       0.00000000       0.00000000       0.00000000       0.00000000    -105.09040070
F        0.00000000       0.00000000       1.06181818       0.00000000       0.00000000     105.09040070
2
Properties=species:S:1:pos:R:3:forces:R:3 energy=-0.5644464252568131 pbc="F F F"
F        0.00000000       0.00000000       0.00000000       0.00000000       0.00000000     -60.50510788
F        0.00000000       0.00000000       1.12060606       0.00000000       0.00000000      60.50510788
2
Properties=species:S:1:pos:R:3:forces:R:3 energy=-3.253641237902543 pbc="F F F"
F        0.00000000       0.00000000       0.00000000       0.00000000       0.00000000     -33.22819901
F        0.00000000       0.00000000       1.17939394       0.00000000       0.00000000      33.22819901
2
Properties=species:S:1:pos:R:3:forces:R:3 energy=-4.677441613490581 pbc="F F F"
F        0.00000000       0.00000000       0.00000000       0.00000000       0.00000000     -16.73043251
F        0.00000000       0.00000000       1.23818182       0.00000000       0.00000000      16.73043251
2
Properties=species:S:1:pos:R:3:forces:R:3 energy=-5.372441770401785 pbc="F F F"
F        0.00000000       0.00000000       0.00000000       0.00000000       0.00000000      -7.91406155
F        0.00000000       0.00000000       1.29696970       0.00000000       0.00000000       7.91406155
2
Properties=species:S:1:pos:R:3:forces:R:3 energy=-5.692883714425243 pbc="F F F"
F        0.00000000       0.00000000       0.00000000       0.00000000       0.00000000      -3.44913673
F        0.00000000       0.00000000       1.35575758       0.00000000       0.00000000       3.44913673
2
Properties=species:S:1:pos:R:3:forces:R:3 energy=-5.8110085542562615 pbc="F F F"
F        0.00000000       0.00000000       0.00000000       0.00000000       0.00000000      -0.75608426
F        0.00000000       0.00000000       1.41454545       0.00000000       0.00000000       0.75608426
2
Properties=species:S:1:pos:R:3:forces:R:3 energy=-5.8017445748123215 pbc="F F F"
F        0.00000000       0.00000000       0.00000000       0.00000000       0.00000000       0.91300607
F        0.00000000       0.00000000       1.47333333       0.00000000       0.00000000      -0.91300607
2
Properties=species:S:1:pos:R:3:forces:R:3 energy=-5.719175454051769 pbc="F F F"
F        0.00000000       0.00000000       0.00000000       0.00000000       0.00000000       1.78415704
F        0.00000000       0.00000000       1.53212121       0.00000000       0.00000000      -1.78415704
2
Properties=species:S:1:pos:R:3:forces:R:3 energy=-5.606227952811426 pbc="F F F"
F        0.00000000       0.00000000       0.00000000       0.00000000       0.00000000       1.93066776
F        0.00000000       0.00000000       1.59090909       0.00000000       0.00000000      -1.93066776
2
Properties=species:S:1:pos:R:3:forces:R:3 energy=-5.503013219128337 pbc="F F F"
F        0.00000000       0.00000000       0.00000000       0.00000000       0.00000000       1.53303742
F        0.00000000       0.00000000       1.64969697       0.00000000       0.00000000      -1.53303742
2
Properties=species:S:1:pos:R:3:forces:R:3 energy=-5.431128822402359 pbc="F F F"
F        0.00000000       0.00000000       0.00000000       0.00000000       0.00000000       0.84823471
F        0.00000000       0.00000000       1.70848485       0.00000000       0.00000000      -0.84823471
2
Properties=species:S:1:pos:R:3:forces:R:3 energy=-5.411212838862082 pbc="F F F"
F        0.00000000       0.00000000       0.00000000       0.00000000       0.00000000      -0.21066922
F        0.00000000       0.00000000       1.76727273       0.00000000       0.00000000       0.21066922
2
Properties=species:S:1:pos:R:3:forces:R:3 energy=-5.4544849232664765 pbc="F F F"
F        0.00000000       0.00000000       0.00000000       0.00000000       0.00000000      -1.20136273
F        0.00000000       0.00000000       1.82606061       0.00000000       0.00000000       1.20136273
2
Properties=species:S:1:pos:R:3:forces:R:3 energy=-5.542007835112703 pbc="F F F"
F        0.00000000       0.00000000       0.00000000       0.00000000       0.00000000      -1.67122698
F        0.00000000       0.00000000       1.88484848       0.00000000       0.00000000       1.67122698
2
Properties=species:S:1:pos:R:3:forces:R:3 energy=-5.638363824851291 pbc="F F F"
F        0.00000000       0.00000000       0.00000000       0.00000000       0.00000000      -1.50387585
F        0.00000000       0.00000000       1.94363636       0.00000000       0.00000000       1.50387585
2
Properties=species:S:1:pos:R:3:forces:R:3 energy=-5.70826295623172 pbc="F F F"
F        0.00000000       0.00000000       0.00000000       0.00000000       0.00000000      -0.80249417
F        0.00000000       0.00000000       2.00242424       0.00000000       0.00000000       0.80249417
2
Properties=species:S:1:pos:R:3:forces:R:3 energy=-5.72707571071873 pbc="F F F"
F        0.00000000       0.00000000       0.00000000       0.00000000       0.00000000       0.18497649
F        0.00000000       0.00000000       2.06121212       0.00000000       0.00000000      -0.18497649
2
Properties=species:S:1:pos:R:3:forces:R:3 energy=-5.686778572523856 pbc="F F F"
F        0.00000000       0.00000000       0.00000000       0.00000000       0.00000000       1.16128635
F        0.00000000       0.00000000       2.12000000       0.00000000       0.00000000      -1.16128635
2
Properties=species:S:1:pos:R:3:forces:R:3 energy=-5.595410081288098 pbc="F F F"
F        0.00000000       0.00000000       0.00000000       0.00000000       0.00000000       1.89345050
F        0.00000000       0.00000000       2.17878788       0.00000000       0.00000000      -1.89345050
2
Properties=species:S:1:pos:R:3:forces:R:3 energy=-5.471086922120224 pbc="F F F"
F        0.00000000       0.00000000       0.00000000       0.00000000       0.00000000       2.27625847
F        0.00000000       0.00000000       2.23757576       0.00000000       0.00000000      -2.27625847
2
Properties=species:S:1:pos:R:3:forces:R:3 energy=-5.334336538128214 pbc="F F F"
F        0.00000000       0.00000000       0.00000000       0.00000000       0.00000000       2.32684970
F        0.00000000       0.00000000       2.29636364       0.00000000       0.00000000      -2.32684970
2
Properties=species:S:1:pos:R:3:forces:R:3 energy=-5.20225832604032 pbc="F F F"
F        0.00000000       0.00000000       0.00000000       0.00000000       0.00000000       2.13537192
F        0.00000000       0.00000000       2.35515152       0.00000000       0.00000000      -2.13537192
2
Properties=species:S:1:pos:R:3:forces:R:3 energy=-5.085871019901365 pbc="F F F"
F        0.00000000       0.00000000       0.00000000       0.00000000       0.00000000       1.81039989
F        0.00000000       0.00000000       2.41393939       0.00000000       0.00000000      -1.81039989
2
Properties=species:S:1:pos:R:3:forces:R:3 energy=-4.990207597605337 pbc="F F F"
F        0.00000000       0.00000000       0.00000000       0.00000000       0.00000000       1.44308317
F        0.00000000       0.00000000       2.47272727       0.00000000       0.00000000      -1.44308317
2
Properties=species:S:1:pos:R:3:forces:R:3 energy=-4.915827816676732 pbc="F F F"
F        0.00000000       0.00000000       0.00000000       0.00000000       0.00000000       1.09369993
F        0.00000000       0.00000000       2.53151515       0.00000000       0.00000000      -1.09369993
2
Properties=species:S:1:pos:R:3:forces:R:3 energy=-4.860640689848992 pbc="F F F"
F        0.00000000       0.00000000       0.00000000       0.00000000       0.00000000       0.79329973
F        0.00000000       0.00000000       2.59030303       0.00000000       0.00000000      -0.79329973
2
Properties=species:S:1:pos:R:3:forces:R:3 energy=-4.821394605341656 pbc="F F F"
F        0.00000000       0.00000000       0.00000000       0.00000000       0.00000000       0.55176109
F        0.00000000       0.00000000       2.64909091       0.00000000       0.00000000      -0.55176109
2
Properties=species:S:1:pos:R:3:forces:R:3 energy=-4.794659612990161 pbc="F F F"
F        0.00000000       0.00000000       0.00000000       0.00000000       0.00000000       0.36654252
F        0.00000000       0.00000000       2.70787879       0.00000000       0.00000000      -0.36654252
2
Properties=species:S:1:pos:R:3:forces:R:3 energy=-4.777354808419699 pbc="F F F"
F        0.00000000       0.00000000       0.00000000       0.00000000       0.00000000       0.22935934
F        0.00000000       0.00000000       2.76666667       0.00000000       0.00000000      -0.22935934
2
Properties=species:S:1:pos:R:3:forces:R:3 energy=-4.7669443158890745 pbc="F F F"
F        0.00000000       0.00000000       0.00000000       0.00000000       0.00000000       0.13039324
F        0.00000000       0.00000000       2.82545455       0.00000000       0.00000000      -0.13039324
2
Properties=species:S:1:pos:R:3:forces:R:3 energy=-4.761455408795681 pbc="F F F"
F        0.00000000       0.00000000       0.00000000       0.00000000       0.00000000       0.06051673
F        0.00000000       0.00000000       2.88424242       0.00000000       0.00000000      -0.06051673
2
Properties=species:S:1:pos:R:3:forces:R:3 energy=-4.7594079401519505 pbc="F F F"
F        0.00000000       0.00000000       0.00000000       0.00000000       0.00000000       0.01217704
F        0.00000000       0.00000000       2.94303030       0.00000000       0.00000000      -0.01217704
2
Properties=species:S:1:pos:R:3:forces:R:3 energy=-4.759716114427749 pbc="F F F"
F        0.00000000       0.00000000       0.00000000       0.00000000       0.00000000      -0.02043011
F        0.00000000       0.00000000       3.00181818       0.00000000       0.00000000       0.02043011
2
Properties=species:S:1:pos:R:3:forces:R:3 energy=-4.761585018242805 pbc="F F F"
F        0.00000000       0.00000000       0.00000000       0.00000000       0.00000000      -0.04151634
F        0.00000000       0.00000000       3.06060606       0.00000000       0.00000000       0.04151634
2
Properties=species:S:1:pos:R:3:forces:R:3 energy=-4.76442907992572 pbc="F F F"
F        0.00000000       0.00000000       0.00000000       0.00000000       0.00000000      -0.05398464
F        0.00000000       0.00000000       3.11939394       0.00000000       0.00000000       0.05398464
2
Properties=species:S:1:pos:R:3:forces:R:3 energy=-4.767801501178366 pbc="F F F"
F        0.00000000       0.00000000       0.00000000       0.00000000       0.00000000      -0.05972252
F        0.00000000       0.00000000       3.17818182       0.00000000       0.00000000       0.05972252
2
Properties=species:S:1:pos:R:3:forces:R:3 energy=-4.771342759157762 pbc="F F F"
F        0.00000000       0.00000000       0.00000000       0.00000000       0.00000000      -0.05987065
F        0.00000000       0.00000000       3.23696970       0.00000000       0.00000000       0.05987065
2
Properties=species:S:1:pos:R:3:forces:R:3 energy=-4.774742937231531 pbc="F F F"
F        0.00000000       0.00000000       0.00000000       0.00000000       0.00000000      -0.05506035
F        0.00000000       0.00000000       3.29575758       0.00000000       0.00000000       0.05506035
2
Properties=species:S:1:pos:R:3:forces:R:3 energy=-4.777725514098431 pbc="F F F"
F        0.00000000       0.00000000       0.00000000       0.00000000       0.00000000      -0.04561620
F        0.00000000       0.00000000       3.35454545       0.00000000       0.00000000       0.04561620
2
Properties=species:S:1:pos:R:3:forces:R:3 energy=-4.780020183575364 pbc="F F F"
F        0.00000000       0.00000000       0.00000000       0.00000000       0.00000000      -0.03174067
F        0.00000000       0.00000000       3.41333333       0.00000000       0.00000000       0.03174067
2
Properties=species:S:1:pos:R:3:forces:R:3 energy=-4.781374300075099 pbc="F F F"
F        0.00000000       0.00000000       0.00000000       0.00000000       0.00000000      -0.01364999
F        0.00000000       0.00000000       3.47212121       0.00000000       0.00000000       0.01364999
2
Properties=species:S:1:pos:R:3:forces:R:3 energy=-4.781550015405439 pbc="F F F"
F        0.00000000       0.00000000       0.00000000       0.00000000       0.00000000       0.00828811
F        0.00000000       0.00000000       3.53090909       0.00000000       0.00000000      -0.00828811
2
Properties=species:S:1:pos:R:3:forces:R:3 energy=-4.7803362002921475 pbc="F F F"
F        0.00000000       0.00000000       0.00000000       0.00000000       0.00000000       0.03347476
F        0.00000000       0.00000000       3.58969697       0.00000000       0.00000000      -0.03347476
2
Properties=species:S:1:pos:R:3:forces:R:3 energy=-4.777566561716098 pbc="F F F"
F        0.00000000       0.00000000       0.00000000       0.00000000       0.00000000       0.06104521
F        0.00000000       0.00000000       3.64848485       0.00000000       0.00000000      -0.06104521
2
Properties=species:S:1:pos:R:3:forces:R:3 energy=-4.7731339477310355 pbc="F F F"
F        0.00000000       0.00000000       0.00000000       0.00000000       0.00000000       0.08988354
F        0.00000000       0.00000000       3.70727273       0.00000000       0.00000000      -0.08988354
2
Properties=species:S:1:pos:R:3:forces:R:3 energy=-4.766999402320868 pbc="F F F"
F        0.00000000       0.00000000       0.00000000       0.00000000       0.00000000       0.11871171
F        0.00000000       0.00000000       3.76606061       0.00000000       0.00000000      -0.11871171
2
Properties=species:S:1:pos:R:3:forces:R:3 energy=-4.759201702439813 pbc="F F F"
F        0.00000000       0.00000000       0.00000000       0.00000000       0.00000000       0.14622331
F        0.00000000       0.00000000       3.82484848       0.00000000       0.00000000      -0.14622331
2
Properties=species:S:1:pos:R:3:forces:R:3 energy=-4.749854968678892 pbc="F F F"
F        0.00000000       0.00000000       0.00000000       0.00000000       0.00000000       0.17125238
F        0.00000000       0.00000000       3.88363636       0.00000000       0.00000000      -0.17125238
2
Properties=species:S:1:pos:R:3:forces:R:3 energy=-4.739132927907312 pbc="F F F"
F        0.00000000       0.00000000       0.00000000       0.00000000       0.00000000       0.19293100
F        0.00000000       0.00000000       3.94242424       0.00000000       0.00000000      -0.19293100
2
Properties=species:S:1:pos:R:3:forces:R:3 energy=-4.7272474519375525 pbc="F F F"
F        0.00000000       0.00000000       0.00000000       0.00000000       0.00000000       0.21079300
F        0.00000000       0.00000000       4.00121212       0.00000000       0.00000000      -0.21079300
2
Properties=species:S:1:pos:R:3:forces:R:3 energy=-4.714425189683266 pbc="F F F"
F        0.00000000       0.00000000       0.00000000       0.00000000       0.00000000       0.22475280
F        0.00000000       0.00000000       4.06000000       0.00000000       0.00000000      -0.22475280
2
Properties=species:S:1:pos:R:3:forces:R:3 energy=-4.700894689833665 pbc="F F F"
F        0.00000000       0.00000000       0.00000000       0.00000000       0.00000000       0.23497775
F        0.00000000       0.00000000       4.11878788       0.00000000       0.00000000      -0.23497775
2
Properties=species:S:1:pos:R:3:forces:R:3 energy=-4.686866371416002 pbc="F F F"
F        0.00000000       0.00000000       0.00000000       0.00000000       0.00000000       0.24168530
F        0.00000000       0.00000000       4.17757576       0.00000000       0.00000000      -0.24168530
2
Properties=species:S:1:pos:R:3:forces:R:3 energy=-4.672544443338606 pbc="F F F"
F        0.00000000       0.00000000       0.00000000       0.00000000       0.00000000       0.24498579
F        0.00000000       0.00000000       4.23636364       0.00000000       0.00000000      -0.24498579
2
Properties=species:S:1:pos:R:3:forces:R:3 energy=-4.658129286200802 pbc="F F F"
F        0.00000000       0.00000000       0.00000000       0.00000000       0.00000000       0.24483776
F        0.00000000       0.00000000       4.29515152       0.00000000       0.00000000      -0.24483776
2
Properties=species:S:1:pos:R:3:forces:R:3 energy=-4.643827466368211 pbc="F F F"
F        0.00000000       0.00000000       0.00000000       0.00000000       0.00000000       0.24113923
F        0.00000000       0.00000000       4.35393939       0.00000000       0.00000000      -0.24113923
2
Properties=species:S:1:pos:R:3:forces:R:3 energy=-4.629847441864463 pbc="F F F"
F        0.00000000       0.00000000       0.00000000       0.00000000       0.00000000       0.23386818
F        0.00000000       0.00000000       4.41272727       0.00000000       0.00000000      -0.23386818
2
Properties=species:S:1:pos:R:3:forces:R:3 energy=-4.616396227035457 pbc="F F F"
F        0.00000000       0.00000000       0.00000000       0.00000000       0.00000000       0.22322658
F        0.00000000       0.00000000       4.47151515       0.00000000       0.00000000      -0.22322658
2
Properties=species:S:1:pos:R:3:forces:R:3 energy=-4.603658409882997 pbc="F F F"
F        0.00000000       0.00000000       0.00000000       0.00000000       0.00000000       0.20968524
F        0.00000000       0.00000000       4.53030303       0.00000000       0.00000000      -0.20968524
2
Properties=species:S:1:pos:R:3:forces:R:3 energy=-4.591784709853891 pbc="F F F"
F        0.00000000       0.00000000       0.00000000       0.00000000       0.00000000       0.19398005
F        0.00000000       0.00000000       4.58909091       0.00000000       0.00000000      -0.19398005
2
Properties=species:S:1:pos:R:3:forces:R:3 energy=-4.580876243005686 pbc="F F F"
F        0.00000000       0.00000000       0.00000000       0.00000000       0.00000000       0.17701301
F        0.00000000       0.00000000       4.64787879       0.00000000       0.00000000      -0.17701301
2
Properties=species:S:1:pos:R:3:forces:R:3 energy=-4.57097880045574 pbc="F F F"
F        0.00000000       0.00000000       0.00000000       0.00000000       0.00000000       0.15969698
F        0.00000000       0.00000000       4.70666667       0.00000000       0.00000000      -0.15969698
2
Properties=species:S:1:pos:R:3:forces:R:3 energy=-4.56209095632057 pbc="F F F"
F        0.00000000       0.00000000       0.00000000       0.00000000       0.00000000       0.14282322
F        0.00000000       0.00000000       4.76545455       0.00000000       0.00000000      -0.14282322
2
Properties=species:S:1:pos:R:3:forces:R:3 energy=-4.554165976351408 pbc="F F F"
F        0.00000000       0.00000000       0.00000000       0.00000000       0.00000000       0.12696189
F        0.00000000       0.00000000       4.82424242       0.00000000       0.00000000      -0.12696189
2
Properties=species:S:1:pos:R:3:forces:R:3 energy=-4.547136614530619 pbc="F F F"
F        0.00000000       0.00000000       0.00000000       0.00000000       0.00000000       0.11246515
F        0.00000000       0.00000000       4.88303030       0.00000000       0.00000000      -0.11246515
2
Properties=species:S:1:pos:R:3:forces:R:3 energy=-4.540912252815961 pbc="F F F"
F        0.00000000       0.00000000       0.00000000       0.00000000       0.00000000       0.09955492
F        0.00000000       0.00000000       4.94181818       0.00000000       0.00000000      -0.09955492
2
Properties=species:S:1:pos:R:3:forces:R:3 energy=-4.535395115286867 pbc="F F F"
F        0.00000000       0.00000000       0.00000000       0.00000000       0.00000000       0.08848210
F        0.00000000       0.00000000       5.00060606       0.00000000       0.00000000      -0.08848210
2
Properties=species:S:1:pos:R:3:forces:R:3 energy=-4.530465964168134 pbc="F F F"
F        0.00000000       0.00000000       0.00000000       0.00000000       0.00000000       0.07960211
F        0.00000000       0.00000000       5.05939394       0.00000000       0.00000000      -0.07960211
2
Properties=species:S:1:pos:R:3:forces:R:3 energy=-4.525985530786878 pbc="F F F"
F        0.00000000       0.00000000       0.00000000       0.00000000       0.00000000       0.07328355
F        0.00000000       0.00000000       5.11818182       0.00000000       0.00000000      -0.07328355
2
Properties=species:S:1:pos:R:3:forces:R:3 energy=-4.521798331309235 pbc="F F F"
F        0.00000000       0.00000000       0.00000000       0.00000000       0.00000000       0.06955760
F        0.00000000       0.00000000       5.17696970       0.00000000       0.00000000      -0.06955760
2
Properties=species:S:1:pos:R:3:forces:R:3 energy=-4.517770338336027 pbc="F F F"
F        0.00000000       0.00000000       0.00000000       0.00000000       0.00000000       0.06767320
F        0.00000000       0.00000000       5.23575758       0.00000000       0.00000000      -0.06767320
2
Properties=species:S:1:pos:R:3:forces:R:3 energy=-4.513838094263865 pbc="F F F"
F        0.00000000       0.00000000       0.00000000       0.00000000       0.00000000       0.06598202
F        0.00000000       0.00000000       5.29454545       0.00000000       0.00000000      -0.06598202
2
Properties=species:S:1:pos:R:3:forces:R:3 energy=-4.510040661577362 pbc="F F F"
F        0.00000000       0.00000000       0.00000000       0.00000000       0.00000000       0.06292869
F        0.00000000       0.00000000       5.35333333       0.00000000       0.00000000      -0.06292869
2
Properties=species:S:1:pos:R:3:forces:R:3 energy=-4.506449527217667 pbc="F F F"
F        0.00000000       0.00000000       0.00000000       0.00000000       0.00000000       0.05951956
F        0.00000000       0.00000000       5.41212121       0.00000000       0.00000000      -0.05951956
2
Properties=species:S:1:pos:R:3:forces:R:3 energy=-4.502963086484989 pbc="F F F"
F        0.00000000       0.00000000       0.00000000       0.00000000       0.00000000       0.05996598
F        0.00000000       0.00000000       5.47090909       0.00000000       0.00000000      -0.05996598
2
Properties=species:S:1:pos:R:3:forces:R:3 energy=-4.499369108953806 pbc="F F F"
F        0.00000000       0.00000000       0.00000000       0.00000000       0.00000000       0.06121197
F        0.00000000       0.00000000       5.52969697       0.00000000       0.00000000      -0.06121197
2
Properties=species:S:1:pos:R:3:forces:R:3 energy=-4.496059994705138 pbc="F F F"
F        0.00000000       0.00000000       0.00000000       0.00000000       0.00000000       0.04819820
F        0.00000000       0.00000000       5.58848485       0.00000000       0.00000000      -0.04819820
2
Properties=species:S:1:pos:R:3:forces:R:3 energy=-4.4939784147420285 pbc="F F F"
F        0.00000000       0.00000000       0.00000000       0.00000000       0.00000000       0.02182866
F        0.00000000       0.00000000       5.64727273       0.00000000       0.00000000      -0.02182866
2
Properties=species:S:1:pos:R:3:forces:R:3 energy=-4.493387548267891 pbc="F F F"
F        0.00000000       0.00000000       0.00000000       0.00000000       0.00000000       0.00069942
F        0.00000000       0.00000000       5.70606061       0.00000000       0.00000000      -0.00069942
2
Properties=species:S:1:pos:R:3:forces:R:3 energy=-4.493542542144367 pbc="F F F"
F        0.00000000       0.00000000       0.00000000       0.00000000       0.00000000      -0.00329089
F        0.00000000       0.00000000       5.76484848       0.00000000       0.00000000       0.00329089
2
Properties=species:S:1:pos:R:3:forces:R:3 energy=-4.493623681197558 pbc="F F F"
F        0.00000000       0.00000000       0.00000000       0.00000000       0.00000000       0.00047444
F        0.00000000       0.00000000       5.82363636       0.00000000       0.00000000      -0.00047444
2
Properties=species:S:1:pos:R:3:forces:R:3 energy=-4.493554163684482 pbc="F F F"
F        0.00000000       0.00000000       0.00000000       0.00000000       0.00000000       0.00133304
F        0.00000000       0.00000000       5.88242424       0.00000000       0.00000000      -0.00133304
2
Properties=species:S:1:pos:R:3:forces:R:3 energy=-4.493498469208982 pbc="F F F"
F        0.00000000       0.00000000       0.00000000       0.00000000       0.00000000       0.00052667
F        0.00000000       0.00000000       5.94121212       0.00000000       0.00000000      -0.00052667
2
Properties=species:S:1:pos:R:3:forces:R:3 energy=-4.493483272673616 pbc="F F F"
F        0.00000000       0.00000000       0.00000000       0.00000000       0.00000000       0.00011699
F        0.00000000       0.00000000       6.00000000       0.00000000       0.00000000      -0.00011699
