2
Properties=species:S:1:pos:R:3:forces:R:3 energy=5928.431961403018 pbc="F F F"
Fe       0.00000000       0.00000000       0.00000000       0.00000000       0.00000000 -331115.34375000
Fe       0.00000000       0.00000000       0.10000000       0.00000000       0.00000000  331115.34375000
2
Properties=species:S:1:pos:R:3:forces:R:3 energy=-4089.5450893782318 pbc="F F F"
Fe       0.00000000       0.00000000       0.00000000       0.00000000       0.00000000  -76277.41406250
Fe       0.00000000       0.00000000       0.15959596       0.00000000       0.00000000   76277.41406250
2
Properties=species:S:1:pos:R:3:forces:R:3 energy=-6596.302901878232 pbc="F F F"
Fe       0.00000000       0.00000000       0.00000000       0.00000000       0.00000000  -18560.31054688
Fe       0.00000000       0.00000000       0.21919192       0.00000000       0.00000000   18560.31054688
2
Properties=species:S:1:pos:R:3:forces:R:3 energy=-6901.352218284482 pbc="F F F"
Fe       0.00000000       0.00000000       0.00000000       0.00000000       0.00000000    6204.83251953
Fe       0.00000000       0.00000000       0.27878788       0.00000000       0.00000000   -6204.83251953
2
Properties=species:S:1:pos:R:3:forces:R:3 energy=-6061.490890159482 pbc="F F F"
Fe       0.00000000       0.00000000       0.00000000       0.00000000       0.00000000   21771.11132812
Fe       0.00000000       0.00000000       0.33838384       0.00000000       0.00000000  -21771.11132812
2
Properties=species:S:1:pos:R:3:forces:R:3 energy=-3970.2491909407318 pbc="F F F"
Fe       0.00000000       0.00000000       0.00000000       0.00000000       0.00000000   66736.04687500
Fe       0.00000000       0.00000000       0.39797980       0.00000000       0.00000000  -66736.04687500
2
Properties=species:S:1:pos:R:3:forces:R:3 energy=4377.517410623352 pbc="F F F"
Fe       0.00000000       0.00000000       0.00000000       0.00000000       0.00000000   94698.65625000
Fe       0.00000000       0.00000000       0.45757576       0.00000000       0.00000000  -94698.65625000
2
Properties=species:S:1:pos:R:3:forces:R:3 energy=6338.027176249936 pbc="F F F"
Fe       0.00000000       0.00000000       0.00000000       0.00000000       0.00000000  -23027.62500000
Fe       0.00000000       0.00000000       0.51717172       0.00000000       0.00000000   23027.62500000
2
Properties=species:S:1:pos:R:3:forces:R:3 energy=3545.565506329645 pbc="F F F"
Fe       0.00000000       0.00000000       0.00000000       0.00000000       0.00000000  -50777.67968750
Fe       0.00000000       0.00000000       0.57676768       0.00000000       0.00000000   50777.67968750
2
Properties=species:S:1:pos:R:3:forces:R:3 energy=1746.297073717209 pbc="F F F"
Fe       0.00000000       0.00000000       0.00000000       0.00000000       0.00000000   -7822.81298828
Fe       0.00000000       0.00000000       0.63636364       0.00000000       0.00000000    7822.81298828
2
Properties=species:S:1:pos:R:3:forces:R:3 energy=1919.1474155220037 pbc="F F F"
Fe       0.00000000       0.00000000       0.00000000       0.00000000       0.00000000   -7437.72070312
Fe       0.00000000       0.00000000       0.69595960       0.00000000       0.00000000    7437.72070312
2
Properties=species:S:1:pos:R:3:forces:R:3 energy=1235.4422153377786 pbc="F F F"
Fe       0.00000000       0.00000000       0.00000000       0.00000000       0.00000000   -7900.26025391
Fe       0.00000000       0.00000000       0.75555556       0.00000000       0.00000000    7900.26025391
2
Properties=species:S:1:pos:R:3:forces:R:3 energy=867.1248325419097 pbc="F F F"
Fe       0.00000000       0.00000000       0.00000000       0.00000000       0.00000000   -5521.29687500
Fe       0.00000000       0.00000000       0.81515152       0.00000000       0.00000000    5521.29687500
2
Properties=species:S:1:pos:R:3:forces:R:3 energy=559.2631992640951 pbc="F F F"
Fe       0.00000000       0.00000000       0.00000000       0.00000000       0.00000000   -4511.76367188
Fe       0.00000000       0.00000000       0.87474747       0.00000000       0.00000000    4511.76367188
2
Properties=species:S:1:pos:R:3:forces:R:3 energy=346.3524326965867 pbc="F F F"
Fe       0.00000000       0.00000000       0.00000000       0.00000000       0.00000000   -2695.16284180
Fe       0.00000000       0.00000000       0.93434343       0.00000000       0.00000000    2695.16284180
2
Properties=species:S:1:pos:R:3:forces:R:3 energy=221.9793095743667 pbc="F F F"
Fe       0.00000000       0.00000000       0.00000000       0.00000000       0.00000000   -1638.67944336
Fe       0.00000000       0.00000000       0.99393939       0.00000000       0.00000000    1638.67944336
2
Properties=species:S:1:pos:R:3:forces:R:3 energy=136.3444219416187 pbc="F F F"
Fe       0.00000000       0.00000000       0.00000000       0.00000000       0.00000000   -1311.29443359
Fe       0.00000000       0.00000000       1.05353535       0.00000000       0.00000000    1311.29443359
2
Properties=species:S:1:pos:R:3:forces:R:3 energy=65.52890078453966 pbc="F F F"
Fe       0.00000000       0.00000000       0.00000000       0.00000000       0.00000000   -1019.20465088
Fe       0.00000000       0.00000000       1.11313131       0.00000000       0.00000000    1019.20465088
2
Properties=species:S:1:pos:R:3:forces:R:3 energy=16.450726303557023 pbc="F F F"
Fe       0.00000000       0.00000000       0.00000000       0.00000000       0.00000000    -649.27880859
Fe       0.00000000       0.00000000       1.17272727       0.00000000       0.00000000     649.27880859
2
Properties=species:S:1:pos:R:3:forces:R:3 energy=-11.487294260859695 pbc="F F F"
Fe       0.00000000       0.00000000       0.00000000       0.00000000       0.00000000    -214.15742493
Fe       0.00000000       0.00000000       1.23232323       0.00000000       0.00000000     214.15742493
2
Properties=species:S:1:pos:R:3:forces:R:3 energy=-16.329092861058555 pbc="F F F"
Fe       0.00000000       0.00000000       0.00000000       0.00000000       0.00000000     -35.07687759
Fe       0.00000000       0.00000000       1.29191919       0.00000000       0.00000000      35.07687759
2
Properties=species:S:1:pos:R:3:forces:R:3 energy=-17.922413479532977 pbc="F F F"
Fe       0.00000000       0.00000000       0.00000000       0.00000000       0.00000000     -19.03927612
Fe       0.00000000       0.00000000       1.35151515       0.00000000       0.00000000      19.03927612
2
Properties=species:S:1:pos:R:3:forces:R:3 energy=-18.707266175996367 pbc="F F F"
Fe       0.00000000       0.00000000       0.00000000       0.00000000       0.00000000      -8.73713112
Fe       0.00000000       0.00000000       1.41111111       0.00000000       0.00000000       8.73713112
2
Properties=species:S:1:pos:R:3:forces:R:3 energy=-19.110454528228534 pbc="F F F"
Fe       0.00000000       0.00000000       0.00000000       0.00000000       0.00000000      -5.58533525
Fe       0.00000000       0.00000000       1.47070707       0.00000000       0.00000000       5.58533525
2
Properties=species:S:1:pos:R:3:forces:R:3 energy=-19.423715134260945 pbc="F F F"
Fe       0.00000000       0.00000000       0.00000000       0.00000000       0.00000000      -5.11077785
Fe       0.00000000       0.00000000       1.53030303       0.00000000       0.00000000       5.11077785
2
Properties=species:S:1:pos:R:3:forces:R:3 energy=-19.728367801469656 pbc="F F F"
Fe       0.00000000       0.00000000       0.00000000       0.00000000       0.00000000      -5.14002848
Fe       0.00000000       0.00000000       1.58989899       0.00000000       0.00000000       5.14002848
2
Properties=species:S:1:pos:R:3:forces:R:3 energy=-20.04361382517225 pbc="F F F"
Fe       0.00000000       0.00000000       0.00000000       0.00000000       0.00000000      -5.56623650
Fe       0.00000000       0.00000000       1.64949495       0.00000000       0.00000000       5.56623650
2
Properties=species:S:1:pos:R:3:forces:R:3 energy=-20.41000158459863 pbc="F F F"
Fe       0.00000000       0.00000000       0.00000000       0.00000000       0.00000000      -6.81158400
Fe       0.00000000       0.00000000       1.70909091       0.00000000       0.00000000       6.81158400
2
Properties=species:S:1:pos:R:3:forces:R:3 energy=-20.842740413171228 pbc="F F F"
Fe       0.00000000       0.00000000       0.00000000       0.00000000       0.00000000      -7.44695950
Fe       0.00000000       0.00000000       1.76868687       0.00000000       0.00000000       7.44695950
2
Properties=species:S:1:pos:R:3:forces:R:3 energy=-21.265906674732395 pbc="F F F"
Fe       0.00000000       0.00000000       0.00000000       0.00000000       0.00000000      -6.55201674
Fe       0.00000000       0.00000000       1.82828283       0.00000000       0.00000000       6.55201674
2
Properties=species:S:1:pos:R:3:forces:R:3 energy=-21.60737643532224 pbc="F F F"
Fe       0.00000000       0.00000000       0.00000000       0.00000000       0.00000000      -4.81522751
Fe       0.00000000       0.00000000       1.88787879       0.00000000       0.00000000       4.81522751
2
Properties=species:S:1:pos:R:3:forces:R:3 energy=-21.832745951629313 pbc="F F F"
Fe       0.00000000       0.00000000       0.00000000       0.00000000       0.00000000      -2.72594213
Fe       0.00000000       0.00000000       1.94747475       0.00000000       0.00000000       2.72594213
2
Properties=species:S:1:pos:R:3:forces:R:3 energy=-21.935598781363925 pbc="F F F"
Fe       0.00000000       0.00000000       0.00000000       0.00000000       0.00000000      -0.80869079
Fe       0.00000000       0.00000000       2.00707071       0.00000000       0.00000000       0.80869079
2
Properties=species:S:1:pos:R:3:forces:R:3 energy=-21.945065127788716 pbc="F F F"
Fe       0.00000000       0.00000000       0.00000000       0.00000000       0.00000000       0.31913808
Fe       0.00000000       0.00000000       2.06666667       0.00000000       0.00000000      -0.31913808
2
Properties=species:S:1:pos:R:3:forces:R:3 energy=-21.91895818214715 pbc="F F F"
Fe       0.00000000       0.00000000       0.00000000       0.00000000       0.00000000       0.39588052
Fe       0.00000000       0.00000000       2.12626263       0.00000000       0.00000000      -0.39588052
2
Properties=species:S:1:pos:R:3:forces:R:3 energy=-21.910309481712925 pbc="F F F"
Fe       0.00000000       0.00000000       0.00000000       0.00000000       0.00000000      -0.13429469
Fe       0.00000000       0.00000000       2.18585859       0.00000000       0.00000000       0.13429469
2
Properties=species:S:1:pos:R:3:forces:R:3 energy=-21.928637837981928 pbc="F F F"
Fe       0.00000000       0.00000000       0.00000000       0.00000000       0.00000000      -0.36019096
Fe       0.00000000       0.00000000       2.24545455       0.00000000       0.00000000       0.36019096
2
Properties=species:S:1:pos:R:3:forces:R:3 energy=-21.936124680064303 pbc="F F F"
Fe       0.00000000       0.00000000       0.00000000       0.00000000       0.00000000       0.23827311
Fe       0.00000000       0.00000000       2.30505051       0.00000000       0.00000000      -0.23827311
2
Properties=species:S:1:pos:R:3:forces:R:3 energy=-21.891962124842994 pbc="F F F"
Fe       0.00000000       0.00000000       0.00000000       0.00000000       0.00000000       1.23969042
Fe       0.00000000       0.00000000       2.36464646       0.00000000       0.00000000      -1.23969042
2
Properties=species:S:1:pos:R:3:forces:R:3 energy=-21.79634990077301 pbc="F F F"
Fe       0.00000000       0.00000000       0.00000000       0.00000000       0.00000000       1.86216640
Fe       0.00000000       0.00000000       2.42424242       0.00000000       0.00000000      -1.86216640
2
Properties=species:S:1:pos:R:3:forces:R:3 energy=-21.682782426569144 pbc="F F F"
Fe       0.00000000       0.00000000       0.00000000       0.00000000       0.00000000       1.86173928
Fe       0.00000000       0.00000000       2.48383838       0.00000000       0.00000000      -1.86173928
2
Properties=species:S:1:pos:R:3:forces:R:3 energy=-21.58085346279168 pbc="F F F"
Fe       0.00000000       0.00000000       0.00000000       0.00000000       0.00000000       1.53834069
Fe       0.00000000       0.00000000       2.54343434       0.00000000       0.00000000      -1.53834069
2
Properties=species:S:1:pos:R:3:forces:R:3 energy=-21.498801093461008 pbc="F F F"
Fe       0.00000000       0.00000000       0.00000000       0.00000000       0.00000000       1.23963082
Fe       0.00000000       0.00000000       2.60303030       0.00000000       0.00000000      -1.23963082
2
Properties=species:S:1:pos:R:3:forces:R:3 energy=-21.42913635485746 pbc="F F F"
Fe       0.00000000       0.00000000       0.00000000       0.00000000       0.00000000       1.13436532
Fe       0.00000000       0.00000000       2.66262626       0.00000000       0.00000000      -1.13436532
2
Properties=species:S:1:pos:R:3:forces:R:3 energy=-21.359816554311507 pbc="F F F"
Fe       0.00000000       0.00000000       0.00000000       0.00000000       0.00000000       1.21570671
Fe       0.00000000       0.00000000       2.72222222       0.00000000       0.00000000      -1.21570671
2
Properties=species:S:1:pos:R:3:forces:R:3 energy=-21.28271978903177 pbc="F F F"
Fe       0.00000000       0.00000000       0.00000000       0.00000000       0.00000000       1.37310410
Fe       0.00000000       0.00000000       2.78181818       0.00000000       0.00000000      -1.37310410
2
Properties=species:S:1:pos:R:3:forces:R:3 energy=-21.197025397469446 pbc="F F F"
Fe       0.00000000       0.00000000       0.00000000       0.00000000       0.00000000       1.48935890
Fe       0.00000000       0.00000000       2.84141414       0.00000000       0.00000000      -1.48935890
2
Properties=species:S:1:pos:R:3:forces:R:3 energy=-21.107032224233148 pbc="F F F"
Fe       0.00000000       0.00000000       0.00000000       0.00000000       0.00000000       1.51552439
Fe       0.00000000       0.00000000       2.90101010       0.00000000       0.00000000      -1.51552439
2
Properties=species:S:1:pos:R:3:forces:R:3 energy=-21.017984516875845 pbc="F F F"
Fe       0.00000000       0.00000000       0.00000000       0.00000000       0.00000000       1.46154284
Fe       0.00000000       0.00000000       2.96060606       0.00000000       0.00000000      -1.46154284
2
Properties=species:S:1:pos:R:3:forces:R:3 energy=-20.933941228259684 pbc="F F F"
Fe       0.00000000       0.00000000       0.00000000       0.00000000       0.00000000       1.35135937
Fe       0.00000000       0.00000000       3.02020202       0.00000000       0.00000000      -1.35135937
2
Properties=species:S:1:pos:R:3:forces:R:3 energy=-20.857595701909375 pbc="F F F"
Fe       0.00000000       0.00000000       0.00000000       0.00000000       0.00000000       1.20698059
Fe       0.00000000       0.00000000       3.07979798       0.00000000       0.00000000      -1.20698059
2
Properties=species:S:1:pos:R:3:forces:R:3 energy=-20.79025941408034 pbc="F F F"
Fe       0.00000000       0.00000000       0.00000000       0.00000000       0.00000000       1.05365801
Fe       0.00000000       0.00000000       3.13939394       0.00000000       0.00000000      -1.05365801
2
Properties=species:S:1:pos:R:3:forces:R:3 energy=-20.731629297496667 pbc="F F F"
Fe       0.00000000       0.00000000       0.00000000       0.00000000       0.00000000       0.91919070
Fe       0.00000000       0.00000000       3.19898990       0.00000000       0.00000000      -0.91919070
2
Properties=species:S:1:pos:R:3:forces:R:3 energy=-20.679889440634415 pbc="F F F"
Fe       0.00000000       0.00000000       0.00000000       0.00000000       0.00000000       0.82492697
Fe       0.00000000       0.00000000       3.25858586       0.00000000       0.00000000      -0.82492697
2
Properties=species:S:1:pos:R:3:forces:R:3 energy=-20.632342599101015 pbc="F F F"
Fe       0.00000000       0.00000000       0.00000000       0.00000000       0.00000000       0.77862948
Fe       0.00000000       0.00000000       3.31818182       0.00000000       0.00000000      -0.77862948
2
Properties=species:S:1:pos:R:3:forces:R:3 energy=-20.586241889922107 pbc="F F F"
Fe       0.00000000       0.00000000       0.00000000       0.00000000       0.00000000       0.77448475
Fe       0.00000000       0.00000000       3.37777778       0.00000000       0.00000000      -0.77448475
2
Properties=species:S:1:pos:R:3:forces:R:3 energy=-20.53946600246104 pbc="F F F"
Fe       0.00000000       0.00000000       0.00000000       0.00000000       0.00000000       0.79867911
Fe       0.00000000       0.00000000       3.43737374       0.00000000       0.00000000      -0.79867911
2
Properties=species:S:1:pos:R:3:forces:R:3 energy=-20.49078434522139 pbc="F F F"
Fe       0.00000000       0.00000000       0.00000000       0.00000000       0.00000000       0.83611476
Fe       0.00000000       0.00000000       3.49696970       0.00000000       0.00000000      -0.83611476
2
Properties=species:S:1:pos:R:3:forces:R:3 energy=-20.439784565015007 pbc="F F F"
Fe       0.00000000       0.00000000       0.00000000       0.00000000       0.00000000       0.87490082
Fe       0.00000000       0.00000000       3.55656566       0.00000000       0.00000000      -0.87490082
2
Properties=species:S:1:pos:R:3:forces:R:3 energy=-20.386624605894962 pbc="F F F"
Fe       0.00000000       0.00000000       0.00000000       0.00000000       0.00000000       0.90771663
Fe       0.00000000       0.00000000       3.61616162       0.00000000       0.00000000      -0.90771663
2
Properties=species:S:1:pos:R:3:forces:R:3 energy=-20.331782838565076 pbc="F F F"
Fe       0.00000000       0.00000000       0.00000000       0.00000000       0.00000000       0.93102264
Fe       0.00000000       0.00000000       3.67575758       0.00000000       0.00000000      -0.93102264
2
Properties=species:S:1:pos:R:3:forces:R:3 energy=-20.275869251872212 pbc="F F F"
Fe       0.00000000       0.00000000       0.00000000       0.00000000       0.00000000       0.94357252
Fe       0.00000000       0.00000000       3.73535354       0.00000000       0.00000000      -0.94357252
2
Properties=species:S:1:pos:R:3:forces:R:3 energy=-20.219533887400612 pbc="F F F"
Fe       0.00000000       0.00000000       0.00000000       0.00000000       0.00000000       0.94516408
Fe       0.00000000       0.00000000       3.79494949       0.00000000       0.00000000      -0.94516408
2
Properties=species:S:1:pos:R:3:forces:R:3 energy=-20.16342679623799 pbc="F F F"
Fe       0.00000000       0.00000000       0.00000000       0.00000000       0.00000000       0.93596959
Fe       0.00000000       0.00000000       3.85454545       0.00000000       0.00000000      -0.93596959
2
Properties=species:S:1:pos:R:3:forces:R:3 energy=-20.108180888676923 pbc="F F F"
Fe       0.00000000       0.00000000       0.00000000       0.00000000       0.00000000       0.91635400
Fe       0.00000000       0.00000000       3.91414141       0.00000000       0.00000000      -0.91635400
2
Properties=species:S:1:pos:R:3:forces:R:3 energy=-20.054400482203544 pbc="F F F"
Fe       0.00000000       0.00000000       0.00000000       0.00000000       0.00000000       0.88694739
Fe       0.00000000       0.00000000       3.97373737       0.00000000       0.00000000      -0.88694739
2
Properties=species:S:1:pos:R:3:forces:R:3 energy=-20.002640320662536 pbc="F F F"
Fe       0.00000000       0.00000000       0.00000000       0.00000000       0.00000000       0.84876198
Fe       0.00000000       0.00000000       4.03333333       0.00000000       0.00000000      -0.84876198
2
Properties=species:S:1:pos:R:3:forces:R:3 energy=-19.953380799315777 pbc="F F F"
Fe       0.00000000       0.00000000       0.00000000       0.00000000       0.00000000       0.80324548
Fe       0.00000000       0.00000000       4.09292929       0.00000000       0.00000000      -0.80324548
2
Properties=species:S:1:pos:R:3:forces:R:3 energy=-19.907008896107726 pbc="F F F"
Fe       0.00000000       0.00000000       0.00000000       0.00000000       0.00000000       0.75222051
Fe       0.00000000       0.00000000       4.15252525       0.00000000       0.00000000      -0.75222051
2
Properties=species:S:1:pos:R:3:forces:R:3 energy=-19.86378955034858 pbc="F F F"
Fe       0.00000000       0.00000000       0.00000000       0.00000000       0.00000000       0.69775581
Fe       0.00000000       0.00000000       4.21212121       0.00000000       0.00000000      -0.69775581
2
Properties=species:S:1:pos:R:3:forces:R:3 energy=-19.823865688056816 pbc="F F F"
Fe       0.00000000       0.00000000       0.00000000       0.00000000       0.00000000       0.64201391
Fe       0.00000000       0.00000000       4.27171717       0.00000000       0.00000000      -0.64201391
2
Properties=species:S:1:pos:R:3:forces:R:3 energy=-19.787250587812963 pbc="F F F"
Fe       0.00000000       0.00000000       0.00000000       0.00000000       0.00000000       0.58713871
Fe       0.00000000       0.00000000       4.33131313       0.00000000       0.00000000      -0.58713871
2
Properties=species:S:1:pos:R:3:forces:R:3 energy=-19.753827888679123 pbc="F F F"
Fe       0.00000000       0.00000000       0.00000000       0.00000000       0.00000000       0.53510940
Fe       0.00000000       0.00000000       4.39090909       0.00000000       0.00000000      -0.53510940
2
Properties=species:S:1:pos:R:3:forces:R:3 energy=-19.723378302583328 pbc="F F F"
Fe       0.00000000       0.00000000       0.00000000       0.00000000       0.00000000       0.48759234
Fe       0.00000000       0.00000000       4.45050505       0.00000000       0.00000000      -0.48759234
2
Properties=species:S:1:pos:R:3:forces:R:3 energy=-19.695598687013884 pbc="F F F"
Fe       0.00000000       0.00000000       0.00000000       0.00000000       0.00000000       0.44569302
Fe       0.00000000       0.00000000       4.51010101       0.00000000       0.00000000      -0.44569302
2
Properties=species:S:1:pos:R:3:forces:R:3 energy=-19.670138279099735 pbc="F F F"
Fe       0.00000000       0.00000000       0.00000000       0.00000000       0.00000000       0.40971351
Fe       0.00000000       0.00000000       4.56969697       0.00000000       0.00000000      -0.40971351
2
Properties=species:S:1:pos:R:3:forces:R:3 energy=-19.646657858264092 pbc="F F F"
Fe       0.00000000       0.00000000       0.00000000       0.00000000       0.00000000       0.37902489
Fe       0.00000000       0.00000000       4.62929293       0.00000000       0.00000000      -0.37902489
2
Properties=species:S:1:pos:R:3:forces:R:3 energy=-19.624885026072683 pbc="F F F"
Fe       0.00000000       0.00000000       0.00000000       0.00000000       0.00000000       0.35211909
Fe       0.00000000       0.00000000       4.68888889       0.00000000       0.00000000      -0.35211909
2
Properties=species:S:1:pos:R:3:forces:R:3 energy=-19.604654280353905 pbc="F F F"
Fe       0.00000000       0.00000000       0.00000000       0.00000000       0.00000000       0.32691100
Fe       0.00000000       0.00000000       4.74848485       0.00000000       0.00000000      -0.32691100
2
Properties=species:S:1:pos:R:3:forces:R:3 energy=-19.585929882791593 pbc="F F F"
Fe       0.00000000       0.00000000       0.00000000       0.00000000       0.00000000       0.30121344
Fe       0.00000000       0.00000000       4.80808081       0.00000000       0.00000000      -0.30121344
2
Properties=species:S:1:pos:R:3:forces:R:3 energy=-19.56879826437652 pbc="F F F"
Fe       0.00000000       0.00000000       0.00000000       0.00000000       0.00000000       0.27322760
Fe       0.00000000       0.00000000       4.86767677       0.00000000       0.00000000      -0.27322760
2
Properties=species:S:1:pos:R:3:forces:R:3 energy=-19.55342983329228 pbc="F F F"
Fe       0.00000000       0.00000000       0.00000000       0.00000000       0.00000000       0.24189746
Fe       0.00000000       0.00000000       4.92727273       0.00000000       0.00000000      -0.24189746
2
Properties=species:S:1:pos:R:3:forces:R:3 energy=-19.540037030668387 pbc="F F F"
Fe       0.00000000       0.00000000       0.00000000       0.00000000       0.00000000       0.20704277
Fe       0.00000000       0.00000000       4.98686869       0.00000000       0.00000000      -0.20704277
2
Properties=species:S:1:pos:R:3:forces:R:3 energy=-19.528813288296423 pbc="F F F"
Fe       0.00000000       0.00000000       0.00000000       0.00000000       0.00000000       0.16927005
Fe       0.00000000       0.00000000       5.04646465       0.00000000       0.00000000      -0.16927005
2
Properties=species:S:1:pos:R:3:forces:R:3 energy=-19.519894850771124 pbc="F F F"
Fe       0.00000000       0.00000000       0.00000000       0.00000000       0.00000000       0.12981600
Fe       0.00000000       0.00000000       5.10606061       0.00000000       0.00000000      -0.12981600
2
Properties=species:S:1:pos:R:3:forces:R:3 energy=-19.51333600371681 pbc="F F F"
Fe       0.00000000       0.00000000       0.00000000       0.00000000       0.00000000       0.09048959
Fe       0.00000000       0.00000000       5.16565657       0.00000000       0.00000000      -0.09048959
2
Properties=species:S:1:pos:R:3:forces:R:3 energy=-19.509059446292977 pbc="F F F"
Fe       0.00000000       0.00000000       0.00000000       0.00000000       0.00000000       0.05362672
Fe       0.00000000       0.00000000       5.22525253       0.00000000       0.00000000      -0.05362672
2
Properties=species:S:1:pos:R:3:forces:R:3 energy=-19.5068467481155 pbc="F F F"
Fe       0.00000000       0.00000000       0.00000000       0.00000000       0.00000000       0.02160828
Fe       0.00000000       0.00000000       5.28484848       0.00000000       0.00000000      -0.02160828
2
Properties=species:S:1:pos:R:3:forces:R:3 energy=-19.506361234272394 pbc="F F F"
Fe       0.00000000       0.00000000       0.00000000       0.00000000       0.00000000      -0.00423946
Fe       0.00000000       0.00000000       5.34444444       0.00000000       0.00000000       0.00423946
2
Properties=species:S:1:pos:R:3:forces:R:3 energy=-19.507237613286538 pbc="F F F"
Fe       0.00000000       0.00000000       0.00000000       0.00000000       0.00000000      -0.02429949
Fe       0.00000000       0.00000000       5.40404040       0.00000000       0.00000000       0.02429949
2
Properties=species:S:1:pos:R:3:forces:R:3 energy=-19.509131556300794 pbc="F F F"
Fe       0.00000000       0.00000000       0.00000000       0.00000000       0.00000000      -0.03776218
Fe       0.00000000       0.00000000       5.46363636       0.00000000       0.00000000       0.03776218
2
Properties=species:S:1:pos:R:3:forces:R:3 energy=-19.511488892054327 pbc="F F F"
Fe       0.00000000       0.00000000       0.00000000       0.00000000       0.00000000      -0.03883453
Fe       0.00000000       0.00000000       5.52323232       0.00000000       0.00000000       0.03883453
2
Properties=species:S:1:pos:R:3:forces:R:3 energy=-19.51347504290274 pbc="F F F"
Fe       0.00000000       0.00000000       0.00000000       0.00000000       0.00000000      -0.02613419
Fe       0.00000000       0.00000000       5.58282828       0.00000000       0.00000000       0.02613419
2
Properties=species:S:1:pos:R:3:forces:R:3 energy=-19.5145300284242 pbc="F F F"
Fe       0.00000000       0.00000000       0.00000000       0.00000000       0.00000000      -0.00939732
Fe       0.00000000       0.00000000       5.64242424       0.00000000       0.00000000       0.00939732
2
Properties=species:S:1:pos:R:3:forces:R:3 energy=-19.51462406755922 pbc="F F F"
Fe       0.00000000       0.00000000       0.00000000       0.00000000       0.00000000       0.00620937
Fe       0.00000000       0.00000000       5.70202020       0.00000000       0.00000000      -0.00620937
2
Properties=species:S:1:pos:R:3:forces:R:3 energy=-19.513765466824324 pbc="F F F"
Fe       0.00000000       0.00000000       0.00000000       0.00000000       0.00000000       0.02270924
Fe       0.00000000       0.00000000       5.76161616       0.00000000       0.00000000      -0.02270924
2
Properties=species:S:1:pos:R:3:forces:R:3 energy=-19.512031122842988 pbc="F F F"
Fe       0.00000000       0.00000000       0.00000000       0.00000000       0.00000000       0.03311292
Fe       0.00000000       0.00000000       5.82121212       0.00000000       0.00000000      -0.03311292
2
Properties=species:S:1:pos:R:3:forces:R:3 energy=-19.510182615752928 pbc="F F F"
Fe       0.00000000       0.00000000       0.00000000       0.00000000       0.00000000       0.02630570
Fe       0.00000000       0.00000000       5.88080808       0.00000000       0.00000000      -0.02630570
2
Properties=species:S:1:pos:R:3:forces:R:3 energy=-19.509055833093 pbc="F F F"
Fe       0.00000000       0.00000000       0.00000000       0.00000000       0.00000000       0.01134673
Fe       0.00000000       0.00000000       5.94040404       0.00000000       0.00000000      -0.01134673
2
Properties=species:S:1:pos:R:3:forces:R:3 energy=-19.508656904370227 pbc="F F F"
Fe       0.00000000       0.00000000       0.00000000       0.00000000       0.00000000       0.00436187
Fe       0.00000000       0.00000000       6.00000000       0.00000000       0.00000000      -0.00436187
