2
Properties=species:S:1:pos:R:3:forces:R:3 energy=-5343.613937034482 pbc="F F F"
Fe       0.00000000       0.00000000       0.00000000       0.00000000       0.00000000  -48705.54687500
Fe       0.00000000       0.00000000       0.18000000       0.00000000       0.00000000   48705.54687500
2
Properties=species:S:1:pos:R:3:forces:R:3 energy=-6861.754562034482 pbc="F F F"
Fe       0.00000000       0.00000000       0.00000000       0.00000000       0.00000000   -8900.31054688
Fe       0.00000000       0.00000000       0.23878788       0.00000000       0.00000000    8900.31054688
2
Properties=species:S:1:pos:R:3:forces:R:3 energy=-6735.151534690732 pbc="F F F"
Fe       0.00000000       0.00000000       0.00000000       0.00000000       0.00000000   10875.67675781
Fe       0.00000000       0.00000000       0.29757576       0.00000000       0.00000000  -10875.67675781
2
Properties=species:S:1:pos:R:3:forces:R:3 energy=-5633.226241721982 pbc="F F F"
Fe       0.00000000       0.00000000       0.00000000       0.00000000       0.00000000   25772.25781250
Fe       0.00000000       0.00000000       0.35636364       0.00000000       0.00000000  -25772.25781250
2
Properties=species:S:1:pos:R:3:forces:R:3 energy=-1260.4504848852523 pbc="F F F"
Fe       0.00000000       0.00000000       0.00000000       0.00000000       0.00000000  164325.32812500
Fe       0.00000000       0.00000000       0.41515152       0.00000000       0.00000000 -164325.32812500
2
Properties=species:S:1:pos:R:3:forces:R:3 energy=5645.781570779602 pbc="F F F"
Fe       0.00000000       0.00000000       0.00000000       0.00000000       0.00000000   60045.12890625
Fe       0.00000000       0.00000000       0.47393939       0.00000000       0.00000000  -60045.12890625
2
Properties=species:S:1:pos:R:3:forces:R:3 energy=5822.030105937436 pbc="F F F"
Fe       0.00000000       0.00000000       0.00000000       0.00000000       0.00000000  -41978.67187500
Fe       0.00000000       0.00000000       0.53272727       0.00000000       0.00000000   41978.67187500
2
Properties=species:S:1:pos:R:3:forces:R:3 energy=2837.527908674979 pbc="F F F"
Fe       0.00000000       0.00000000       0.00000000       0.00000000       0.00000000  -43216.22265625
Fe       0.00000000       0.00000000       0.59151515       0.00000000       0.00000000   43216.22265625
2
Properties=species:S:1:pos:R:3:forces:R:3 energy=1692.8408969609804 pbc="F F F"
Fe       0.00000000       0.00000000       0.00000000       0.00000000       0.00000000    1851.51037598
Fe       0.00000000       0.00000000       0.65030303       0.00000000       0.00000000   -1851.51037598
2
Properties=species:S:1:pos:R:3:forces:R:3 energy=1726.8676303673376 pbc="F F F"
Fe       0.00000000       0.00000000       0.00000000       0.00000000       0.00000000  -15072.58105469
Fe       0.00000000       0.00000000       0.70909091       0.00000000       0.00000000   15072.58105469
2
Properties=species:S:1:pos:R:3:forces:R:3 energy=1145.224808113592 pbc="F F F"
Fe       0.00000000       0.00000000       0.00000000       0.00000000       0.00000000   -6816.91259766
Fe       0.00000000       0.00000000       0.76787879       0.00000000       0.00000000    6816.91259766
2
Properties=species:S:1:pos:R:3:forces:R:3 energy=803.8302768810149 pbc="F F F"
Fe       0.00000000       0.00000000       0.00000000       0.00000000       0.00000000   -5464.66601562
Fe       0.00000000       0.00000000       0.82666667       0.00000000       0.00000000    5464.66601562
2
Properties=species:S:1:pos:R:3:forces:R:3 energy=512.7491611844932 pbc="F F F"
Fe       0.00000000       0.00000000       0.00000000       0.00000000       0.00000000   -4173.50439453
Fe       0.00000000       0.00000000       0.88545455       0.00000000       0.00000000    4173.50439453
2
Properties=species:S:1:pos:R:3:forces:R:3 energy=320.8838047732348 pbc="F F F"
Fe       0.00000000       0.00000000       0.00000000       0.00000000       0.00000000   -2454.57128906
Fe       0.00000000       0.00000000       0.94424242       0.00000000       0.00000000    2454.57128906
2
Properties=species:S:1:pos:R:3:forces:R:3 energy=207.46482899146596 pbc="F F F"
Fe       0.00000000       0.00000000       0.00000000       0.00000000       0.00000000   -1557.11645508
Fe       0.00000000       0.00000000       1.00303030       0.00000000       0.00000000    1557.11645508
2
Properties=species:S:1:pos:R:3:forces:R:3 energy=125.57391413941411 pbc="F F F"
Fe       0.00000000       0.00000000       0.00000000       0.00000000       0.00000000   -1288.65246582
Fe       0.00000000       0.00000000       1.06181818       0.00000000       0.00000000    1288.65246582
2
Properties=species:S:1:pos:R:3:forces:R:3 energy=58.101330454193366 pbc="F F F"
Fe       0.00000000       0.00000000       0.00000000       0.00000000       0.00000000    -968.02655029
Fe       0.00000000       0.00000000       1.12060606       0.00000000       0.00000000     968.02655029
2
Properties=species:S:1:pos:R:3:forces:R:3 energy=12.229918288637416 pbc="F F F"
Fe       0.00000000       0.00000000       0.00000000       0.00000000       0.00000000    -617.18939209
Fe       0.00000000       0.00000000       1.17939394       0.00000000       0.00000000     617.18939209
2
Properties=species:S:1:pos:R:3:forces:R:3 energy=-12.592927980677322 pbc="F F F"
Fe       0.00000000       0.00000000       0.00000000       0.00000000       0.00000000    -164.88424683
Fe       0.00000000       0.00000000       1.23818182       0.00000000       0.00000000     164.88424683
2
Properties=species:S:1:pos:R:3:forces:R:3 energy=-16.501982553900145 pbc="F F F"
Fe       0.00000000       0.00000000       0.00000000       0.00000000       0.00000000     -33.42353439
Fe       0.00000000       0.00000000       1.29696970       0.00000000       0.00000000      33.42353439
2
Properties=species:S:1:pos:R:3:forces:R:3 energy=-18.00104962995964 pbc="F F F"
Fe       0.00000000       0.00000000       0.00000000       0.00000000       0.00000000     -18.03592110
Fe       0.00000000       0.00000000       1.35575758       0.00000000       0.00000000      18.03592110
2
Properties=species:S:1:pos:R:3:forces:R:3 energy=-18.7366889169992 pbc="F F F"
Fe       0.00000000       0.00000000       0.00000000       0.00000000       0.00000000      -8.40339279
Fe       0.00000000       0.00000000       1.41454545       0.00000000       0.00000000       8.40339279
2
Properties=species:S:1:pos:R:3:forces:R:3 energy=-19.125051449892425 pbc="F F F"
Fe       0.00000000       0.00000000       0.00000000       0.00000000       0.00000000      -5.53430653
Fe       0.00000000       0.00000000       1.47333333       0.00000000       0.00000000       5.53430653
2
Properties=species:S:1:pos:R:3:forces:R:3 energy=-19.433005815196175 pbc="F F F"
Fe       0.00000000       0.00000000       0.00000000       0.00000000       0.00000000      -5.10885477
Fe       0.00000000       0.00000000       1.53212121       0.00000000       0.00000000       5.10885477
2
Properties=species:S:1:pos:R:3:forces:R:3 energy=-19.733561503085294 pbc="F F F"
Fe       0.00000000       0.00000000       0.00000000       0.00000000       0.00000000      -5.14212751
Fe       0.00000000       0.00000000       1.59090909       0.00000000       0.00000000       5.14212751
2
Properties=species:S:1:pos:R:3:forces:R:3 energy=-20.044739158489744 pbc="F F F"
Fe       0.00000000       0.00000000       0.00000000       0.00000000       0.00000000      -5.56919861
Fe       0.00000000       0.00000000       1.64969697       0.00000000       0.00000000       5.56919861
2
Properties=species:S:1:pos:R:3:forces:R:3 energy=-20.40587790319013 pbc="F F F"
Fe       0.00000000       0.00000000       0.00000000       0.00000000       0.00000000      -6.79821301
Fe       0.00000000       0.00000000       1.70848485       0.00000000       0.00000000       6.79821301
2
Properties=species:S:1:pos:R:3:forces:R:3 energy=-20.832206134591758 pbc="F F F"
Fe       0.00000000       0.00000000       0.00000000       0.00000000       0.00000000      -7.45136881
Fe       0.00000000       0.00000000       1.76727273       0.00000000       0.00000000       7.45136881
2
Properties=species:S:1:pos:R:3:forces:R:3 energy=-21.25128492744197 pbc="F F F"
Fe       0.00000000       0.00000000       0.00000000       0.00000000       0.00000000      -6.60459661
Fe       0.00000000       0.00000000       1.82606061       0.00000000       0.00000000       6.60459661
2
Properties=species:S:1:pos:R:3:forces:R:3 energy=-21.59263254406745 pbc="F F F"
Fe       0.00000000       0.00000000       0.00000000       0.00000000       0.00000000      -4.91551447
Fe       0.00000000       0.00000000       1.88484848       0.00000000       0.00000000       4.91551447
2
Properties=species:S:1:pos:R:3:forces:R:3 energy=-21.822022559639247 pbc="F F F"
Fe       0.00000000       0.00000000       0.00000000       0.00000000       0.00000000      -2.86208963
Fe       0.00000000       0.00000000       1.94363636       0.00000000       0.00000000       2.86208963
2
Properties=species:S:1:pos:R:3:forces:R:3 energy=-21.93154685614807 pbc="F F F"
Fe       0.00000000       0.00000000       0.00000000       0.00000000       0.00000000      -0.93691117
Fe       0.00000000       0.00000000       2.00242424       0.00000000       0.00000000       0.93691117
2
Properties=species:S:1:pos:R:3:forces:R:3 energy=-21.94664658622208 pbc="F F F"
Fe       0.00000000       0.00000000       0.00000000       0.00000000       0.00000000       0.26026994
Fe       0.00000000       0.00000000       2.06121212       0.00000000       0.00000000      -0.26026994
2
Properties=species:S:1:pos:R:3:forces:R:3 energy=-21.92154868534777 pbc="F F F"
Fe       0.00000000       0.00000000       0.00000000       0.00000000       0.00000000       0.43005225
Fe       0.00000000       0.00000000       2.12000000       0.00000000       0.00000000      -0.43005225
2
Properties=species:S:1:pos:R:3:forces:R:3 energy=-21.909589013643977 pbc="F F F"
Fe       0.00000000       0.00000000       0.00000000       0.00000000       0.00000000      -0.06924482
Fe       0.00000000       0.00000000       2.17878788       0.00000000       0.00000000       0.06924482
2
Properties=species:S:1:pos:R:3:forces:R:3 energy=-21.925728252108275 pbc="F F F"
Fe       0.00000000       0.00000000       0.00000000       0.00000000       0.00000000      -0.37565053
Fe       0.00000000       0.00000000       2.23757576       0.00000000       0.00000000       0.37565053
2
Properties=species:S:1:pos:R:3:forces:R:3 energy=-21.937614490452688 pbc="F F F"
Fe       0.00000000       0.00000000       0.00000000       0.00000000       0.00000000       0.10679276
Fe       0.00000000       0.00000000       2.29636364       0.00000000       0.00000000      -0.10679276
2
Properties=species:S:1:pos:R:3:forces:R:3 energy=-21.903024306673554 pbc="F F F"
Fe       0.00000000       0.00000000       0.00000000       0.00000000       0.00000000       1.08860326
Fe       0.00000000       0.00000000       2.35515152       0.00000000       0.00000000      -1.08860326
2
Properties=species:S:1:pos:R:3:forces:R:3 energy=-21.815244032203747 pbc="F F F"
Fe       0.00000000       0.00000000       0.00000000       0.00000000       0.00000000       1.80187297
Fe       0.00000000       0.00000000       2.41393939       0.00000000       0.00000000      -1.80187297
2
Properties=species:S:1:pos:R:3:forces:R:3 energy=-21.703685078176406 pbc="F F F"
Fe       0.00000000       0.00000000       0.00000000       0.00000000       0.00000000       1.89855647
Fe       0.00000000       0.00000000       2.47272727       0.00000000       0.00000000      -1.89855647
2
Properties=species:S:1:pos:R:3:forces:R:3 energy=-21.59961673646003 pbc="F F F"
Fe       0.00000000       0.00000000       0.00000000       0.00000000       0.00000000       1.60999417
Fe       0.00000000       0.00000000       2.53151515       0.00000000       0.00000000      -1.60999417
2
Properties=species:S:1:pos:R:3:forces:R:3 energy=-21.514888558074613 pbc="F F F"
Fe       0.00000000       0.00000000       0.00000000       0.00000000       0.00000000       1.28989291
Fe       0.00000000       0.00000000       2.59030303       0.00000000       0.00000000      -1.28989291
2
Properties=species:S:1:pos:R:3:forces:R:3 energy=-21.44451407663714 pbc="F F F"
Fe       0.00000000       0.00000000       0.00000000       0.00000000       0.00000000       1.13939822
Fe       0.00000000       0.00000000       2.64909091       0.00000000       0.00000000      -1.13939822
2
Properties=species:S:1:pos:R:3:forces:R:3 energy=-21.377019936979202 pbc="F F F"
Fe       0.00000000       0.00000000       0.00000000       0.00000000       0.00000000       1.18409920
Fe       0.00000000       0.00000000       2.70787879       0.00000000       0.00000000      -1.18409920
2
Properties=species:S:1:pos:R:3:forces:R:3 energy=-21.303225721807372 pbc="F F F"
Fe       0.00000000       0.00000000       0.00000000       0.00000000       0.00000000       1.33320665
Fe       0.00000000       0.00000000       2.76666667       0.00000000       0.00000000      -1.33320665
2
Properties=species:S:1:pos:R:3:forces:R:3 energy=-21.220619672291026 pbc="F F F"
Fe       0.00000000       0.00000000       0.00000000       0.00000000       0.00000000       1.46646643
Fe       0.00000000       0.00000000       2.82545455       0.00000000       0.00000000      -1.46646643
2
Properties=species:S:1:pos:R:3:forces:R:3 energy=-21.132467338825144 pbc="F F F"
Fe       0.00000000       0.00000000       0.00000000       0.00000000       0.00000000       1.51727617
Fe       0.00000000       0.00000000       2.88424242       0.00000000       0.00000000      -1.51727617
2
Properties=species:S:1:pos:R:3:forces:R:3 energy=-21.04388030921639 pbc="F F F"
Fe       0.00000000       0.00000000       0.00000000       0.00000000       0.00000000       1.48433471
Fe       0.00000000       0.00000000       2.94303030       0.00000000       0.00000000      -1.48433471
2
Properties=species:S:1:pos:R:3:forces:R:3 energy=-20.959145484280135 pbc="F F F"
Fe       0.00000000       0.00000000       0.00000000       0.00000000       0.00000000       1.39002728
Fe       0.00000000       0.00000000       3.00181818       0.00000000       0.00000000      -1.39002728
2
Properties=species:S:1:pos:R:3:forces:R:3 energy=-20.881230471030648 pbc="F F F"
Fe       0.00000000       0.00000000       0.00000000       0.00000000       0.00000000       1.25577736
Fe       0.00000000       0.00000000       3.06060606       0.00000000       0.00000000      -1.25577736
2
Properties=species:S:1:pos:R:3:forces:R:3 energy=-20.811836343776438 pbc="F F F"
Fe       0.00000000       0.00000000       0.00000000       0.00000000       0.00000000       1.10435688
Fe       0.00000000       0.00000000       3.11939394       0.00000000       0.00000000      -1.10435688
2
Properties=species:S:1:pos:R:3:forces:R:3 energy=-20.751196185525007 pbc="F F F"
Fe       0.00000000       0.00000000       0.00000000       0.00000000       0.00000000       0.96241885
Fe       0.00000000       0.00000000       3.17818182       0.00000000       0.00000000      -0.96241885
2
Properties=species:S:1:pos:R:3:forces:R:3 energy=-20.698020585834982 pbc="F F F"
Fe       0.00000000       0.00000000       0.00000000       0.00000000       0.00000000       0.85365635
Fe       0.00000000       0.00000000       3.23696970       0.00000000       0.00000000      -0.85365635
2
Properties=species:S:1:pos:R:3:forces:R:3 energy=-20.649923245658268 pbc="F F F"
Fe       0.00000000       0.00000000       0.00000000       0.00000000       0.00000000       0.79054433
Fe       0.00000000       0.00000000       3.29575758       0.00000000       0.00000000      -0.79054433
2
Properties=species:S:1:pos:R:3:forces:R:3 energy=-20.60419545591966 pbc="F F F"
Fe       0.00000000       0.00000000       0.00000000       0.00000000       0.00000000       0.77187496
Fe       0.00000000       0.00000000       3.35454545       0.00000000       0.00000000      -0.77187496
2
Properties=species:S:1:pos:R:3:forces:R:3 energy=-20.55851565655081 pbc="F F F"
Fe       0.00000000       0.00000000       0.00000000       0.00000000       0.00000000       0.78651553
Fe       0.00000000       0.00000000       3.41333333       0.00000000       0.00000000      -0.78651553
2
Properties=species:S:1:pos:R:3:forces:R:3 energy=-20.511355725507684 pbc="F F F"
Fe       0.00000000       0.00000000       0.00000000       0.00000000       0.00000000       0.81975925
Fe       0.00000000       0.00000000       3.47212121       0.00000000       0.00000000      -0.81975925
2
Properties=species:S:1:pos:R:3:forces:R:3 energy=-20.462024865212147 pbc="F F F"
Fe       0.00000000       0.00000000       0.00000000       0.00000000       0.00000000       0.85860795
Fe       0.00000000       0.00000000       3.53090909       0.00000000       0.00000000      -0.85860795
2
Properties=species:S:1:pos:R:3:forces:R:3 energy=-20.4104712177033 pbc="F F F"
Fe       0.00000000       0.00000000       0.00000000       0.00000000       0.00000000       0.89417940
Fe       0.00000000       0.00000000       3.58969697       0.00000000       0.00000000      -0.89417940
2
Properties=species:S:1:pos:R:3:forces:R:3 energy=-20.35705110396331 pbc="F F F"
Fe       0.00000000       0.00000000       0.00000000       0.00000000       0.00000000       0.92165476
Fe       0.00000000       0.00000000       3.64848485       0.00000000       0.00000000      -0.92165476
2
Properties=species:S:1:pos:R:3:forces:R:3 energy=-20.30230776197254 pbc="F F F"
Fe       0.00000000       0.00000000       0.00000000       0.00000000       0.00000000       0.93902671
Fe       0.00000000       0.00000000       3.70727273       0.00000000       0.00000000      -0.93902671
2
Properties=species:S:1:pos:R:3:forces:R:3 energy=-20.246853102181678 pbc="F F F"
Fe       0.00000000       0.00000000       0.00000000       0.00000000       0.00000000       0.94575340
Fe       0.00000000       0.00000000       3.76606061       0.00000000       0.00000000      -0.94575340
2
Properties=species:S:1:pos:R:3:forces:R:3 energy=-20.19131811644731 pbc="F F F"
Fe       0.00000000       0.00000000       0.00000000       0.00000000       0.00000000       0.94188100
Fe       0.00000000       0.00000000       3.82484848       0.00000000       0.00000000      -0.94188100
2
Properties=species:S:1:pos:R:3:forces:R:3 energy=-20.136312825294517 pbc="F F F"
Fe       0.00000000       0.00000000       0.00000000       0.00000000       0.00000000       0.92766619
Fe       0.00000000       0.00000000       3.88363636       0.00000000       0.00000000      -0.92766619
2
Properties=species:S:1:pos:R:3:forces:R:3 energy=-20.08243963569297 pbc="F F F"
Fe       0.00000000       0.00000000       0.00000000       0.00000000       0.00000000       0.90356743
Fe       0.00000000       0.00000000       3.94242424       0.00000000       0.00000000      -0.90356743
2
Properties=species:S:1:pos:R:3:forces:R:3 energy=-20.030255208339454 pbc="F F F"
Fe       0.00000000       0.00000000       0.00000000       0.00000000       0.00000000       0.87035716
Fe       0.00000000       0.00000000       4.00121212       0.00000000       0.00000000      -0.87035716
2
Properties=species:S:1:pos:R:3:forces:R:3 energy=-19.980262817175973 pbc="F F F"
Fe       0.00000000       0.00000000       0.00000000       0.00000000       0.00000000       0.82919943
Fe       0.00000000       0.00000000       4.06000000       0.00000000       0.00000000      -0.82919943
2
Properties=species:S:1:pos:R:3:forces:R:3 energy=-19.93288756969662 pbc="F F F"
Fe       0.00000000       0.00000000       0.00000000       0.00000000       0.00000000       0.78166479
Fe       0.00000000       0.00000000       4.11878788       0.00000000       0.00000000      -0.78166479
2
Properties=species:S:1:pos:R:3:forces:R:3 energy=-19.888445890953392 pbc="F F F"
Fe       0.00000000       0.00000000       0.00000000       0.00000000       0.00000000       0.72962165
Fe       0.00000000       0.00000000       4.17757576       0.00000000       0.00000000      -0.72962165
2
Properties=species:S:1:pos:R:3:forces:R:3 energy=-19.847149352508616 pbc="F F F"
Fe       0.00000000       0.00000000       0.00000000       0.00000000       0.00000000       0.67511261
Fe       0.00000000       0.00000000       4.23636364       0.00000000       0.00000000      -0.67511261
2
Properties=species:S:1:pos:R:3:forces:R:3 energy=-19.809076044782458 pbc="F F F"
Fe       0.00000000       0.00000000       0.00000000       0.00000000       0.00000000       0.62021571
Fe       0.00000000       0.00000000       4.29515152       0.00000000       0.00000000      -0.62021571
2
Properties=species:S:1:pos:R:3:forces:R:3 energy=-19.774195413766847 pbc="F F F"
Fe       0.00000000       0.00000000       0.00000000       0.00000000       0.00000000       0.56695044
Fe       0.00000000       0.00000000       4.35393939       0.00000000       0.00000000      -0.56695044
2
Properties=species:S:1:pos:R:3:forces:R:3 energy=-19.742351066377356 pbc="F F F"
Fe       0.00000000       0.00000000       0.00000000       0.00000000       0.00000000       0.51711565
Fe       0.00000000       0.00000000       4.41272727       0.00000000       0.00000000      -0.51711565
2
Properties=species:S:1:pos:R:3:forces:R:3 energy=-19.71329893168107 pbc="F F F"
Fe       0.00000000       0.00000000       0.00000000       0.00000000       0.00000000       0.47214517
Fe       0.00000000       0.00000000       4.47151515       0.00000000       0.00000000      -0.47214517
2
Properties=species:S:1:pos:R:3:forces:R:3 energy=-19.686724450792948 pbc="F F F"
Fe       0.00000000       0.00000000       0.00000000       0.00000000       0.00000000       0.43284455
Fe       0.00000000       0.00000000       4.53030303       0.00000000       0.00000000      -0.43284455
2
Properties=species:S:1:pos:R:3:forces:R:3 energy=-19.66229405311416 pbc="F F F"
Fe       0.00000000       0.00000000       0.00000000       0.00000000       0.00000000       0.39920443
Fe       0.00000000       0.00000000       4.58909091       0.00000000       0.00000000      -0.39920443
2
Properties=species:S:1:pos:R:3:forces:R:3 energy=-19.639695217780957 pbc="F F F"
Fe       0.00000000       0.00000000       0.00000000       0.00000000       0.00000000       0.37031996
Fe       0.00000000       0.00000000       4.64787879       0.00000000       0.00000000      -0.37031996
2
Properties=species:S:1:pos:R:3:forces:R:3 energy=-19.618693713922564 pbc="F F F"
Fe       0.00000000       0.00000000       0.00000000       0.00000000       0.00000000       0.34452236
Fe       0.00000000       0.00000000       4.70666667       0.00000000       0.00000000      -0.34452236
2
Properties=species:S:1:pos:R:3:forces:R:3 energy=-19.599167904426157 pbc="F F F"
Fe       0.00000000       0.00000000       0.00000000       0.00000000       0.00000000       0.31973279
Fe       0.00000000       0.00000000       4.76545455       0.00000000       0.00000000      -0.31973279
2
Properties=species:S:1:pos:R:3:forces:R:3 energy=-19.581120214579293 pbc="F F F"
Fe       0.00000000       0.00000000       0.00000000       0.00000000       0.00000000       0.29391009
Fe       0.00000000       0.00000000       4.82424242       0.00000000       0.00000000      -0.29391009
2
Properties=species:S:1:pos:R:3:forces:R:3 energy=-19.56466376479036 pbc="F F F"
Fe       0.00000000       0.00000000       0.00000000       0.00000000       0.00000000       0.26550052
Fe       0.00000000       0.00000000       4.88303030       0.00000000       0.00000000      -0.26550052
2
Properties=species:S:1:pos:R:3:forces:R:3 energy=-19.54997086188007 pbc="F F F"
Fe       0.00000000       0.00000000       0.00000000       0.00000000       0.00000000       0.23370478
Fe       0.00000000       0.00000000       4.94181818       0.00000000       0.00000000      -0.23370478
2
Properties=species:S:1:pos:R:3:forces:R:3 energy=-19.537250117233523 pbc="F F F"
Fe       0.00000000       0.00000000       0.00000000       0.00000000       0.00000000       0.19855766
Fe       0.00000000       0.00000000       5.00060606       0.00000000       0.00000000      -0.19855766
2
Properties=species:S:1:pos:R:3:forces:R:3 energy=-19.526677775121804 pbc="F F F"
Fe       0.00000000       0.00000000       0.00000000       0.00000000       0.00000000       0.16079360
Fe       0.00000000       0.00000000       5.05939394       0.00000000       0.00000000      -0.16079360
2
Properties=species:S:1:pos:R:3:forces:R:3 energy=-19.51837099239812 pbc="F F F"
Fe       0.00000000       0.00000000       0.00000000       0.00000000       0.00000000       0.12173277
Fe       0.00000000       0.00000000       5.11818182       0.00000000       0.00000000      -0.12173277
2
Properties=species:S:1:pos:R:3:forces:R:3 energy=-19.512353500678707 pbc="F F F"
Fe       0.00000000       0.00000000       0.00000000       0.00000000       0.00000000       0.08322858
Fe       0.00000000       0.00000000       5.17696970       0.00000000       0.00000000      -0.08322858
2
Properties=species:S:1:pos:R:3:forces:R:3 energy=-19.508528889206787 pbc="F F F"
Fe       0.00000000       0.00000000       0.00000000       0.00000000       0.00000000       0.04757477
Fe       0.00000000       0.00000000       5.23575758       0.00000000       0.00000000      -0.04757477
2
Properties=species:S:1:pos:R:3:forces:R:3 energy=-19.50666153453405 pbc="F F F"
Fe       0.00000000       0.00000000       0.00000000       0.00000000       0.00000000       0.01697739
Fe       0.00000000       0.00000000       5.29454545       0.00000000       0.00000000      -0.01697739
2
Properties=species:S:1:pos:R:3:forces:R:3 energy=-19.50641281717796 pbc="F F F"
Fe       0.00000000       0.00000000       0.00000000       0.00000000       0.00000000      -0.00757558
Fe       0.00000000       0.00000000       5.35333333       0.00000000       0.00000000       0.00757558
2
Properties=species:S:1:pos:R:3:forces:R:3 energy=-19.507444105776667 pbc="F F F"
Fe       0.00000000       0.00000000       0.00000000       0.00000000       0.00000000      -0.02658512
Fe       0.00000000       0.00000000       5.41212121       0.00000000       0.00000000       0.02658512
2
Properties=species:S:1:pos:R:3:forces:R:3 energy=-19.50940912690248 pbc="F F F"
Fe       0.00000000       0.00000000       0.00000000       0.00000000       0.00000000      -0.03869394
Fe       0.00000000       0.00000000       5.47090909       0.00000000       0.00000000       0.03869394
2
Properties=species:S:1:pos:R:3:forces:R:3 energy=-19.511738414075552 pbc="F F F"
Fe       0.00000000       0.00000000       0.00000000       0.00000000       0.00000000      -0.03801070
Fe       0.00000000       0.00000000       5.52969697       0.00000000       0.00000000       0.03801070
2
Properties=species:S:1:pos:R:3:forces:R:3 energy=-19.51361832217716 pbc="F F F"
Fe       0.00000000       0.00000000       0.00000000       0.00000000       0.00000000      -0.02455043
Fe       0.00000000       0.00000000       5.58848485       0.00000000       0.00000000       0.02455043
2
Properties=species:S:1:pos:R:3:forces:R:3 energy=-19.514572771950554 pbc="F F F"
Fe       0.00000000       0.00000000       0.00000000       0.00000000       0.00000000      -0.00809605
Fe       0.00000000       0.00000000       5.64727273       0.00000000       0.00000000       0.00809605
2
Properties=species:S:1:pos:R:3:forces:R:3 energy=-19.51459673589484 pbc="F F F"
Fe       0.00000000       0.00000000       0.00000000       0.00000000       0.00000000       0.00727462
Fe       0.00000000       0.00000000       5.70606061       0.00000000       0.00000000      -0.00727462
2
Properties=species:S:1:pos:R:3:forces:R:3 energy=-19.513687036836963 pbc="F F F"
Fe       0.00000000       0.00000000       0.00000000       0.00000000       0.00000000       0.02362074
Fe       0.00000000       0.00000000       5.76484848       0.00000000       0.00000000      -0.02362074
2
Properties=species:S:1:pos:R:3:forces:R:3 energy=-19.51194916816664 pbc="F F F"
Fe       0.00000000       0.00000000       0.00000000       0.00000000       0.00000000       0.03320800
Fe       0.00000000       0.00000000       5.82363636       0.00000000       0.00000000      -0.03320800
2
Properties=species:S:1:pos:R:3:forces:R:3 energy=-19.510137047364935 pbc="F F F"
Fe       0.00000000       0.00000000       0.00000000       0.00000000       0.00000000       0.02595180
Fe       0.00000000       0.00000000       5.88242424       0.00000000       0.00000000      -0.02595180
2
Properties=species:S:1:pos:R:3:forces:R:3 energy=-19.509048396783065 pbc="F F F"
Fe       0.00000000       0.00000000       0.00000000       0.00000000       0.00000000       0.01116205
Fe       0.00000000       0.00000000       5.94121212       0.00000000       0.00000000      -0.01116205
2
Properties=species:S:1:pos:R:3:forces:R:3 energy=-19.508656904370227 pbc="F F F"
Fe       0.00000000       0.00000000       0.00000000       0.00000000       0.00000000       0.00436187
Fe       0.00000000       0.00000000       6.00000000       0.00000000       0.00000000      -0.00436187
