2
Properties=species:S:1:pos:R:3:forces:R:3 energy=47698.53951316407 pbc="F F F"
Ga       0.00000000       0.00000000       0.00000000       0.00000000       0.00000000 -452240.31250000
Ga       0.00000000       0.00000000       0.10000000       0.00000000       0.00000000  452240.31250000
2
Properties=species:S:1:pos:R:3:forces:R:3 energy=33760.79341941407 pbc="F F F"
Ga       0.00000000       0.00000000       0.00000000       0.00000000       0.00000000 -116333.60937500
Ga       0.00000000       0.00000000       0.15959596       0.00000000       0.00000000  116333.60937500
2
Properties=species:S:1:pos:R:3:forces:R:3 energy=28764.59615378907 pbc="F F F"
Ga       0.00000000       0.00000000       0.00000000       0.00000000       0.00000000  -69382.04687500
Ga       0.00000000       0.00000000       0.21919192       0.00000000       0.00000000   69382.04687500
2
Properties=species:S:1:pos:R:3:forces:R:3 energy=24270.04146628907 pbc="F F F"
Ga       0.00000000       0.00000000       0.00000000       0.00000000       0.00000000  -87053.16406250
Ga       0.00000000       0.00000000       0.27878788       0.00000000       0.00000000   87053.16406250
2
Properties=species:S:1:pos:R:3:forces:R:3 energy=18110.40084128986 pbc="F F F"
Ga       0.00000000       0.00000000       0.00000000       0.00000000       0.00000000 -118645.34375000
Ga       0.00000000       0.00000000       0.33838384       0.00000000       0.00000000  118645.34375000
2
Properties=species:S:1:pos:R:3:forces:R:3 energy=10626.05123191486 pbc="F F F"
Ga       0.00000000       0.00000000       0.00000000       0.00000000       0.00000000 -129617.76562500
Ga       0.00000000       0.00000000       0.39797980       0.00000000       0.00000000  129617.76562500
2
Properties=species:S:1:pos:R:3:forces:R:3 energy=3989.2773061344014 pbc="F F F"
Ga       0.00000000       0.00000000       0.00000000       0.00000000       0.00000000  -86259.14062500
Ga       0.00000000       0.00000000       0.45757576       0.00000000       0.00000000   86259.14062500
2
Properties=species:S:1:pos:R:3:forces:R:3 energy=782.4601674641106 pbc="F F F"
Ga       0.00000000       0.00000000       0.00000000       0.00000000       0.00000000  -27338.06835938
Ga       0.00000000       0.00000000       0.51717172       0.00000000       0.00000000   27338.06835938
2
Properties=species:S:1:pos:R:3:forces:R:3 energy=4.129671632927795 pbc="F F F"
Ga       0.00000000       0.00000000       0.00000000       0.00000000       0.00000000   -4297.38867188
Ga       0.00000000       0.00000000       0.57676768       0.00000000       0.00000000    4297.38867188
2
Properties=species:S:1:pos:R:3:forces:R:3 energy=133.3807454749598 pbc="F F F"
Ga       0.00000000       0.00000000       0.00000000       0.00000000       0.00000000     244.29626465
Ga       0.00000000       0.00000000       0.63636364       0.00000000       0.00000000    -244.29626465
2
Properties=species:S:1:pos:R:3:forces:R:3 energy=115.53559167428561 pbc="F F F"
Ga       0.00000000       0.00000000       0.00000000       0.00000000       0.00000000    -293.95388794
Ga       0.00000000       0.00000000       0.69595960       0.00000000       0.00000000     293.95388794
2
Properties=species:S:1:pos:R:3:forces:R:3 energy=99.5960775275926 pbc="F F F"
Ga       0.00000000       0.00000000       0.00000000       0.00000000       0.00000000    -258.32489014
Ga       0.00000000       0.00000000       0.75555556       0.00000000       0.00000000     258.32489014
2
Properties=species:S:1:pos:R:3:forces:R:3 energy=84.09835873477242 pbc="F F F"
Ga       0.00000000       0.00000000       0.00000000       0.00000000       0.00000000    -256.57138062
Ga       0.00000000       0.00000000       0.81515152       0.00000000       0.00000000     256.57138062
2
Properties=species:S:1:pos:R:3:forces:R:3 energy=69.71073211216579 pbc="F F F"
Ga       0.00000000       0.00000000       0.00000000       0.00000000       0.00000000    -224.51564026
Ga       0.00000000       0.00000000       0.87474747       0.00000000       0.00000000     224.51564026
2
Properties=species:S:1:pos:R:3:forces:R:3 energy=57.1155173072216 pbc="F F F"
Ga       0.00000000       0.00000000       0.00000000       0.00000000       0.00000000    -200.83393860
Ga       0.00000000       0.00000000       0.93434343       0.00000000       0.00000000     200.83393860
2
Properties=species:S:1:pos:R:3:forces:R:3 energy=45.58564827910887 pbc="F F F"
Ga       0.00000000       0.00000000       0.00000000       0.00000000       0.00000000    -188.17379761
Ga       0.00000000       0.00000000       0.99393939       0.00000000       0.00000000     188.17379761
2
Properties=species:S:1:pos:R:3:forces:R:3 energy=34.355583956711115 pbc="F F F"
Ga       0.00000000       0.00000000       0.00000000       0.00000000       0.00000000    -187.77870178
Ga       0.00000000       0.00000000       1.05353535       0.00000000       0.00000000     187.77870178
2
Properties=species:S:1:pos:R:3:forces:R:3 energy=23.534302617056397 pbc="F F F"
Ga       0.00000000       0.00000000       0.00000000       0.00000000       0.00000000    -175.10583496
Ga       0.00000000       0.00000000       1.11313131       0.00000000       0.00000000     175.10583496
2
Properties=species:S:1:pos:R:3:forces:R:3 energy=13.377371817139545 pbc="F F F"
Ga       0.00000000       0.00000000       0.00000000       0.00000000       0.00000000    -162.70436096
Ga       0.00000000       0.00000000       1.17272727       0.00000000       0.00000000     162.70436096
2
Properties=species:S:1:pos:R:3:forces:R:3 energy=5.2672569242611225 pbc="F F F"
Ga       0.00000000       0.00000000       0.00000000       0.00000000       0.00000000    -103.33428955
Ga       0.00000000       0.00000000       1.23232323       0.00000000       0.00000000     103.33428955
2
Properties=species:S:1:pos:R:3:forces:R:3 energy=0.5126508800534975 pbc="F F F"
Ga       0.00000000       0.00000000       0.00000000       0.00000000       0.00000000     -64.91416168
Ga       0.00000000       0.00000000       1.29191919       0.00000000       0.00000000      64.91416168
2
Properties=species:S:1:pos:R:3:forces:R:3 energy=-3.0486882425017976 pbc="F F F"
Ga       0.00000000       0.00000000       0.00000000       0.00000000       0.00000000     -55.87499619
Ga       0.00000000       0.00000000       1.35151515       0.00000000       0.00000000      55.87499619
2
Properties=species:S:1:pos:R:3:forces:R:3 energy=-6.152758585211954 pbc="F F F"
Ga       0.00000000       0.00000000       0.00000000       0.00000000       0.00000000     -48.02679443
Ga       0.00000000       0.00000000       1.41111111       0.00000000       0.00000000      48.02679443
2
Properties=species:S:1:pos:R:3:forces:R:3 energy=-8.756449287932536 pbc="F F F"
Ga       0.00000000       0.00000000       0.00000000       0.00000000       0.00000000     -39.38110733
Ga       0.00000000       0.00000000       1.47070707       0.00000000       0.00000000      39.38110733
2
Properties=species:S:1:pos:R:3:forces:R:3 energy=-10.86665063413634 pbc="F F F"
Ga       0.00000000       0.00000000       0.00000000       0.00000000       0.00000000     -31.69858742
Ga       0.00000000       0.00000000       1.53030303       0.00000000       0.00000000      31.69858742
2
Properties=species:S:1:pos:R:3:forces:R:3 energy=-12.569834165601437 pbc="F F F"
Ga       0.00000000       0.00000000       0.00000000       0.00000000       0.00000000     -25.75240517
Ga       0.00000000       0.00000000       1.58989899       0.00000000       0.00000000      25.75240517
2
Properties=species:S:1:pos:R:3:forces:R:3 energy=-13.966853782511853 pbc="F F F"
Ga       0.00000000       0.00000000       0.00000000       0.00000000       0.00000000     -21.34235001
Ga       0.00000000       0.00000000       1.64949495       0.00000000       0.00000000      21.34235001
2
Properties=species:S:1:pos:R:3:forces:R:3 energy=-15.133234749674129 pbc="F F F"
Ga       0.00000000       0.00000000       0.00000000       0.00000000       0.00000000     -17.92153740
Ga       0.00000000       0.00000000       1.70909091       0.00000000       0.00000000      17.92153740
2
Properties=species:S:1:pos:R:3:forces:R:3 energy=-16.113326722451266 pbc="F F F"
Ga       0.00000000       0.00000000       0.00000000       0.00000000       0.00000000     -15.02901554
Ga       0.00000000       0.00000000       1.76868687       0.00000000       0.00000000      15.02901554
2
Properties=species:S:1:pos:R:3:forces:R:3 energy=-16.929405603351128 pbc="F F F"
Ga       0.00000000       0.00000000       0.00000000       0.00000000       0.00000000     -12.38552570
Ga       0.00000000       0.00000000       1.82828283       0.00000000       0.00000000      12.38552570
2
Properties=species:S:1:pos:R:3:forces:R:3 energy=-17.592379514453036 pbc="F F F"
Ga       0.00000000       0.00000000       0.00000000       0.00000000       0.00000000      -9.88808823
Ga       0.00000000       0.00000000       1.88787879       0.00000000       0.00000000       9.88808823
2
Properties=species:S:1:pos:R:3:forces:R:3 energy=-18.11179283069145 pbc="F F F"
Ga       0.00000000       0.00000000       0.00000000       0.00000000       0.00000000      -7.58427000
Ga       0.00000000       0.00000000       1.94747475       0.00000000       0.00000000       7.58427000
2
Properties=species:S:1:pos:R:3:forces:R:3 energy=-18.50238175532192 pbc="F F F"
Ga       0.00000000       0.00000000       0.00000000       0.00000000       0.00000000      -5.58204126
Ga       0.00000000       0.00000000       2.00707071       0.00000000       0.00000000       5.58204126
2
Properties=species:S:1:pos:R:3:forces:R:3 energy=-18.784570258284074 pbc="F F F"
Ga       0.00000000       0.00000000       0.00000000       0.00000000       0.00000000      -3.95193458
Ga       0.00000000       0.00000000       2.06666667       0.00000000       0.00000000       3.95193458
2
Properties=species:S:1:pos:R:3:forces:R:3 energy=-18.98079653540609 pbc="F F F"
Ga       0.00000000       0.00000000       0.00000000       0.00000000       0.00000000      -2.69129848
Ga       0.00000000       0.00000000       2.12626263       0.00000000       0.00000000       2.69129848
2
Properties=species:S:1:pos:R:3:forces:R:3 energy=-19.111582008805897 pbc="F F F"
Ga       0.00000000       0.00000000       0.00000000       0.00000000       0.00000000      -1.74364090
Ga       0.00000000       0.00000000       2.18585859       0.00000000       0.00000000       1.74364090
2
Properties=species:S:1:pos:R:3:forces:R:3 energy=-19.19331312240487 pbc="F F F"
Ga       0.00000000       0.00000000       0.00000000       0.00000000       0.00000000      -1.03213429
Ga       0.00000000       0.00000000       2.24545455       0.00000000       0.00000000       1.03213429
2
Properties=species:S:1:pos:R:3:forces:R:3 energy=-19.237816038028747 pbc="F F F"
Ga       0.00000000       0.00000000       0.00000000       0.00000000       0.00000000      -0.48290944
Ga       0.00000000       0.00000000       2.30505051       0.00000000       0.00000000       0.48290944
2
Properties=species:S:1:pos:R:3:forces:R:3 energy=-19.25293650661391 pbc="F F F"
Ga       0.00000000       0.00000000       0.00000000       0.00000000       0.00000000      -0.03837753
Ga       0.00000000       0.00000000       2.36464646       0.00000000       0.00000000       0.03837753
2
Properties=species:S:1:pos:R:3:forces:R:3 energy=-19.243802494196487 pbc="F F F"
Ga       0.00000000       0.00000000       0.00000000       0.00000000       0.00000000       0.33426628
Ga       0.00000000       0.00000000       2.42424242       0.00000000       0.00000000      -0.33426628
2
Properties=species:S:1:pos:R:3:forces:R:3 energy=-19.214342318966395 pbc="F F F"
Ga       0.00000000       0.00000000       0.00000000       0.00000000       0.00000000       0.64365411
Ga       0.00000000       0.00000000       2.48383838       0.00000000       0.00000000      -0.64365411
2
Properties=species:S:1:pos:R:3:forces:R:3 energy=-19.168396485048703 pbc="F F F"
Ga       0.00000000       0.00000000       0.00000000       0.00000000       0.00000000       0.88707286
Ga       0.00000000       0.00000000       2.54343434       0.00000000       0.00000000      -0.88707286
2
Properties=species:S:1:pos:R:3:forces:R:3 energy=-19.109948423378928 pbc="F F F"
Ga       0.00000000       0.00000000       0.00000000       0.00000000       0.00000000       1.06320417
Ga       0.00000000       0.00000000       2.60303030       0.00000000       0.00000000      -1.06320417
2
Properties=species:S:1:pos:R:3:forces:R:3 energy=-19.04300872869156 pbc="F F F"
Ga       0.00000000       0.00000000       0.00000000       0.00000000       0.00000000       1.17179716
Ga       0.00000000       0.00000000       2.66262626       0.00000000       0.00000000      -1.17179716
2
Properties=species:S:1:pos:R:3:forces:R:3 energy=-18.971698917813477 pbc="F F F"
Ga       0.00000000       0.00000000       0.00000000       0.00000000       0.00000000       1.20902002
Ga       0.00000000       0.00000000       2.72222222       0.00000000       0.00000000      -1.20902002
2
Properties=species:S:1:pos:R:3:forces:R:3 energy=-18.90037459097145 pbc="F F F"
Ga       0.00000000       0.00000000       0.00000000       0.00000000       0.00000000       1.17261028
Ga       0.00000000       0.00000000       2.78181818       0.00000000       0.00000000      -1.17261028
2
Properties=species:S:1:pos:R:3:forces:R:3 energy=-18.83320991219863 pbc="F F F"
Ga       0.00000000       0.00000000       0.00000000       0.00000000       0.00000000       1.07247138
Ga       0.00000000       0.00000000       2.84141414       0.00000000       0.00000000      -1.07247138
2
Properties=species:S:1:pos:R:3:forces:R:3 energy=-18.773300185970996 pbc="F F F"
Ga       0.00000000       0.00000000       0.00000000       0.00000000       0.00000000       0.93467432
Ga       0.00000000       0.00000000       2.90101010       0.00000000       0.00000000      -0.93467432
2
Properties=species:S:1:pos:R:3:forces:R:3 energy=-18.72184765695697 pbc="F F F"
Ga       0.00000000       0.00000000       0.00000000       0.00000000       0.00000000       0.79457545
Ga       0.00000000       0.00000000       2.96060606       0.00000000       0.00000000      -0.79457545
2
Properties=species:S:1:pos:R:3:forces:R:3 energy=-18.67801034007609 pbc="F F F"
Ga       0.00000000       0.00000000       0.00000000       0.00000000       0.00000000       0.68325168
Ga       0.00000000       0.00000000       3.02020202       0.00000000       0.00000000      -0.68325168
2
Properties=species:S:1:pos:R:3:forces:R:3 energy=-18.639504163246034 pbc="F F F"
Ga       0.00000000       0.00000000       0.00000000       0.00000000       0.00000000       0.61700022
Ga       0.00000000       0.00000000       3.07979798       0.00000000       0.00000000      -0.61700022
2
Properties=species:S:1:pos:R:3:forces:R:3 energy=-18.603544047782012 pbc="F F F"
Ga       0.00000000       0.00000000       0.00000000       0.00000000       0.00000000       0.59693062
Ga       0.00000000       0.00000000       3.13939394       0.00000000       0.00000000      -0.59693062
2
Properties=species:S:1:pos:R:3:forces:R:3 energy=-18.56759026140906 pbc="F F F"
Ga       0.00000000       0.00000000       0.00000000       0.00000000       0.00000000       0.61522985
Ga       0.00000000       0.00000000       3.19898990       0.00000000       0.00000000      -0.61522985
2
Properties=species:S:1:pos:R:3:forces:R:3 energy=-18.529670097023658 pbc="F F F"
Ga       0.00000000       0.00000000       0.00000000       0.00000000       0.00000000       0.66098452
Ga       0.00000000       0.00000000       3.25858586       0.00000000       0.00000000      -0.66098452
2
Properties=species:S:1:pos:R:3:forces:R:3 energy=-18.48848181767243 pbc="F F F"
Ga       0.00000000       0.00000000       0.00000000       0.00000000       0.00000000       0.72307646
Ga       0.00000000       0.00000000       3.31818182       0.00000000       0.00000000      -0.72307646
2
Properties=species:S:1:pos:R:3:forces:R:3 energy=-18.443367768201124 pbc="F F F"
Ga       0.00000000       0.00000000       0.00000000       0.00000000       0.00000000       0.79109579
Ga       0.00000000       0.00000000       3.37777778       0.00000000       0.00000000      -0.79109579
2
Properties=species:S:1:pos:R:3:forces:R:3 energy=-18.39425960700968 pbc="F F F"
Ga       0.00000000       0.00000000       0.00000000       0.00000000       0.00000000       0.85566479
Ga       0.00000000       0.00000000       3.43737374       0.00000000       0.00000000      -0.85566479
2
Properties=species:S:1:pos:R:3:forces:R:3 energy=-18.341605261820167 pbc="F F F"
Ga       0.00000000       0.00000000       0.00000000       0.00000000       0.00000000       0.90895057
Ga       0.00000000       0.00000000       3.49696970       0.00000000       0.00000000      -0.90895057
2
Properties=species:S:1:pos:R:3:forces:R:3 energy=-18.286253583233954 pbc="F F F"
Ga       0.00000000       0.00000000       0.00000000       0.00000000       0.00000000       0.94556922
Ga       0.00000000       0.00000000       3.55656566       0.00000000       0.00000000      -0.94556922
2
Properties=species:S:1:pos:R:3:forces:R:3 energy=-18.229275712075264 pbc="F F F"
Ga       0.00000000       0.00000000       0.00000000       0.00000000       0.00000000       0.96346855
Ga       0.00000000       0.00000000       3.61616162       0.00000000       0.00000000      -0.96346855
2
Properties=species:S:1:pos:R:3:forces:R:3 energy=-18.17176133679618 pbc="F F F"
Ga       0.00000000       0.00000000       0.00000000       0.00000000       0.00000000       0.96409559
Ga       0.00000000       0.00000000       3.67575758       0.00000000       0.00000000      -0.96409559
2
Properties=species:S:1:pos:R:3:forces:R:3 energy=-18.114626261924883 pbc="F F F"
Ga       0.00000000       0.00000000       0.00000000       0.00000000       0.00000000       0.95148891
Ga       0.00000000       0.00000000       3.73535354       0.00000000       0.00000000      -0.95148891
2
Properties=species:S:1:pos:R:3:forces:R:3 energy=-18.058513368488768 pbc="F F F"
Ga       0.00000000       0.00000000       0.00000000       0.00000000       0.00000000       0.93067443
Ga       0.00000000       0.00000000       3.79494949       0.00000000       0.00000000      -0.93067443
2
Properties=species:S:1:pos:R:3:forces:R:3 energy=-18.003771674361147 pbc="F F F"
Ga       0.00000000       0.00000000       0.00000000       0.00000000       0.00000000       0.90606064
Ga       0.00000000       0.00000000       3.85454545       0.00000000       0.00000000      -0.90606064
2
Properties=species:S:1:pos:R:3:forces:R:3 energy=-17.9505365078442 pbc="F F F"
Ga       0.00000000       0.00000000       0.00000000       0.00000000       0.00000000       0.88045323
Ga       0.00000000       0.00000000       3.91414141       0.00000000       0.00000000      -0.88045323
2
Properties=species:S:1:pos:R:3:forces:R:3 energy=-17.89882871197262 pbc="F F F"
Ga       0.00000000       0.00000000       0.00000000       0.00000000       0.00000000       0.85482025
Ga       0.00000000       0.00000000       3.97373737       0.00000000       0.00000000      -0.85482025
2
Properties=species:S:1:pos:R:3:forces:R:3 energy=-17.848657658762825 pbc="F F F"
Ga       0.00000000       0.00000000       0.00000000       0.00000000       0.00000000       0.82867378
Ga       0.00000000       0.00000000       4.03333333       0.00000000       0.00000000      -0.82867378
2
Properties=species:S:1:pos:R:3:forces:R:3 energy=-17.80009183695146 pbc="F F F"
Ga       0.00000000       0.00000000       0.00000000       0.00000000       0.00000000       0.80073690
Ga       0.00000000       0.00000000       4.09292929       0.00000000       0.00000000      -0.80073690
2
Properties=species:S:1:pos:R:3:forces:R:3 energy=-17.753279839957983 pbc="F F F"
Ga       0.00000000       0.00000000       0.00000000       0.00000000       0.00000000       0.76967210
Ga       0.00000000       0.00000000       4.15252525       0.00000000       0.00000000      -0.76967210
2
Properties=species:S:1:pos:R:3:forces:R:3 energy=-17.708433212418242 pbc="F F F"
Ga       0.00000000       0.00000000       0.00000000       0.00000000       0.00000000       0.73461753
Ga       0.00000000       0.00000000       4.21212121       0.00000000       0.00000000      -0.73461753
2
Properties=species:S:1:pos:R:3:forces:R:3 energy=-17.665799747303613 pbc="F F F"
Ga       0.00000000       0.00000000       0.00000000       0.00000000       0.00000000       0.69547468
Ga       0.00000000       0.00000000       4.27171717       0.00000000       0.00000000      -0.69547468
2
Properties=species:S:1:pos:R:3:forces:R:3 energy=-17.625608187065858 pbc="F F F"
Ga       0.00000000       0.00000000       0.00000000       0.00000000       0.00000000       0.65288037
Ga       0.00000000       0.00000000       4.33131313       0.00000000       0.00000000      -0.65288037
2
Properties=species:S:1:pos:R:3:forces:R:3 energy=-17.588028169315834 pbc="F F F"
Ga       0.00000000       0.00000000       0.00000000       0.00000000       0.00000000       0.60797077
Ga       0.00000000       0.00000000       4.39090909       0.00000000       0.00000000      -0.60797077
2
Properties=species:S:1:pos:R:3:forces:R:3 energy=-17.553160691664242 pbc="F F F"
Ga       0.00000000       0.00000000       0.00000000       0.00000000       0.00000000       0.56208920
Ga       0.00000000       0.00000000       4.45050505       0.00000000       0.00000000      -0.56208920
2
Properties=species:S:1:pos:R:3:forces:R:3 energy=-17.52102668426089 pbc="F F F"
Ga       0.00000000       0.00000000       0.00000000       0.00000000       0.00000000       0.51649672
Ga       0.00000000       0.00000000       4.51010101       0.00000000       0.00000000      -0.51649672
2
Properties=species:S:1:pos:R:3:forces:R:3 energy=-17.49157272154516 pbc="F F F"
Ga       0.00000000       0.00000000       0.00000000       0.00000000       0.00000000       0.47220209
Ga       0.00000000       0.00000000       4.56969697       0.00000000       0.00000000      -0.47220209
2
Properties=species:S:1:pos:R:3:forces:R:3 energy=-17.464703465387775 pbc="F F F"
Ga       0.00000000       0.00000000       0.00000000       0.00000000       0.00000000       0.42988312
Ga       0.00000000       0.00000000       4.62929293       0.00000000       0.00000000      -0.42988312
2
Properties=species:S:1:pos:R:3:forces:R:3 energy=-17.44028929131748 pbc="F F F"
Ga       0.00000000       0.00000000       0.00000000       0.00000000       0.00000000       0.38988426
Ga       0.00000000       0.00000000       4.68888889       0.00000000       0.00000000      -0.38988426
2
Properties=species:S:1:pos:R:3:forces:R:3 energy=-17.41818536042346 pbc="F F F"
Ga       0.00000000       0.00000000       0.00000000       0.00000000       0.00000000       0.35228431
Ga       0.00000000       0.00000000       4.74848485       0.00000000       0.00000000      -0.35228431
2
Properties=species:S:1:pos:R:3:forces:R:3 energy=-17.398252606525972 pbc="F F F"
Ga       0.00000000       0.00000000       0.00000000       0.00000000       0.00000000       0.31705087
Ga       0.00000000       0.00000000       4.80808081       0.00000000       0.00000000      -0.31705087
2
Properties=species:S:1:pos:R:3:forces:R:3 energy=-17.380348204184873 pbc="F F F"
Ga       0.00000000       0.00000000       0.00000000       0.00000000       0.00000000       0.28419834
Ga       0.00000000       0.00000000       4.86767677       0.00000000       0.00000000      -0.28419834
2
Properties=species:S:1:pos:R:3:forces:R:3 energy=-17.364325571867475 pbc="F F F"
Ga       0.00000000       0.00000000       0.00000000       0.00000000       0.00000000       0.25393990
Ga       0.00000000       0.00000000       4.92727273       0.00000000       0.00000000      -0.25393990
2
Properties=species:S:1:pos:R:3:forces:R:3 energy=-17.350019099696233 pbc="F F F"
Ga       0.00000000       0.00000000       0.00000000       0.00000000       0.00000000       0.22670144
Ga       0.00000000       0.00000000       4.98686869       0.00000000       0.00000000      -0.22670144
2
Properties=species:S:1:pos:R:3:forces:R:3 energy=-17.33723653351744 pbc="F F F"
Ga       0.00000000       0.00000000       0.00000000       0.00000000       0.00000000       0.20298894
Ga       0.00000000       0.00000000       5.04646465       0.00000000       0.00000000      -0.20298894
2
Properties=species:S:1:pos:R:3:forces:R:3 energy=-17.325749427070708 pbc="F F F"
Ga       0.00000000       0.00000000       0.00000000       0.00000000       0.00000000       0.18313158
Ga       0.00000000       0.00000000       5.10606061       0.00000000       0.00000000      -0.18313158
2
Properties=species:S:1:pos:R:3:forces:R:3 energy=-17.315329380029063 pbc="F F F"
Ga       0.00000000       0.00000000       0.00000000       0.00000000       0.00000000       0.16709949
Ga       0.00000000       0.00000000       5.16565657       0.00000000       0.00000000      -0.16709949
2
Properties=species:S:1:pos:R:3:forces:R:3 energy=-17.305767116237018 pbc="F F F"
Ga       0.00000000       0.00000000       0.00000000       0.00000000       0.00000000       0.15433028
Ga       0.00000000       0.00000000       5.22525253       0.00000000       0.00000000      -0.15433028
2
Properties=species:S:1:pos:R:3:forces:R:3 energy=-17.296895348135497 pbc="F F F"
Ga       0.00000000       0.00000000       0.00000000       0.00000000       0.00000000       0.14352731
Ga       0.00000000       0.00000000       5.28484848       0.00000000       0.00000000      -0.14352731
2
Properties=species:S:1:pos:R:3:forces:R:3 energy=-17.288661273432893 pbc="F F F"
Ga       0.00000000       0.00000000       0.00000000       0.00000000       0.00000000       0.13262634
Ga       0.00000000       0.00000000       5.34444444       0.00000000       0.00000000      -0.13262634
2
Properties=species:S:1:pos:R:3:forces:R:3 energy=-17.28112082534075 pbc="F F F"
Ga       0.00000000       0.00000000       0.00000000       0.00000000       0.00000000       0.12020127
Ga       0.00000000       0.00000000       5.40404040       0.00000000       0.00000000      -0.12020127
2
Properties=species:S:1:pos:R:3:forces:R:3 energy=-17.27431851356965 pbc="F F F"
Ga       0.00000000       0.00000000       0.00000000       0.00000000       0.00000000       0.10858738
Ga       0.00000000       0.00000000       5.46363636       0.00000000       0.00000000      -0.10858738
2
Properties=species:S:1:pos:R:3:forces:R:3 energy=-17.26807379257084 pbc="F F F"
Ga       0.00000000       0.00000000       0.00000000       0.00000000       0.00000000       0.10198264
Ga       0.00000000       0.00000000       5.52323232       0.00000000       0.00000000      -0.10198264
2
Properties=species:S:1:pos:R:3:forces:R:3 energy=-17.262116478537415 pbc="F F F"
Ga       0.00000000       0.00000000       0.00000000       0.00000000       0.00000000       0.09765955
Ga       0.00000000       0.00000000       5.58282828       0.00000000       0.00000000      -0.09765955
2
Properties=species:S:1:pos:R:3:forces:R:3 energy=-17.256517788020606 pbc="F F F"
Ga       0.00000000       0.00000000       0.00000000       0.00000000       0.00000000       0.08956052
Ga       0.00000000       0.00000000       5.64242424       0.00000000       0.00000000      -0.08956052
2
Properties=species:S:1:pos:R:3:forces:R:3 energy=-17.251450024673304 pbc="F F F"
Ga       0.00000000       0.00000000       0.00000000       0.00000000       0.00000000       0.08102559
Ga       0.00000000       0.00000000       5.70202020       0.00000000       0.00000000      -0.08102559
2
Properties=species:S:1:pos:R:3:forces:R:3 energy=-17.246742145635828 pbc="F F F"
Ga       0.00000000       0.00000000       0.00000000       0.00000000       0.00000000       0.07791068
Ga       0.00000000       0.00000000       5.76161616       0.00000000       0.00000000      -0.07791068
2
Properties=species:S:1:pos:R:3:forces:R:3 energy=-17.242244059977082 pbc="F F F"
Ga       0.00000000       0.00000000       0.00000000       0.00000000       0.00000000       0.07058799
Ga       0.00000000       0.00000000       5.82121212       0.00000000       0.00000000      -0.07058799
2
Properties=species:S:1:pos:R:3:forces:R:3 energy=-17.23870973982306 pbc="F F F"
Ga       0.00000000       0.00000000       0.00000000       0.00000000       0.00000000       0.04573144
Ga       0.00000000       0.00000000       5.88080808       0.00000000       0.00000000      -0.04573144
2
Properties=species:S:1:pos:R:3:forces:R:3 energy=-17.2368816609389 pbc="F F F"
Ga       0.00000000       0.00000000       0.00000000       0.00000000       0.00000000       0.01622009
Ga       0.00000000       0.00000000       5.94040404       0.00000000       0.00000000      -0.01622009
2
Properties=species:S:1:pos:R:3:forces:R:3 energy=-17.236415085026433 pbc="F F F"
Ga       0.00000000       0.00000000       0.00000000       0.00000000       0.00000000       0.00366873
Ga       0.00000000       0.00000000       6.00000000       0.00000000       0.00000000      -0.00366873
