2
Properties=species:S:1:pos:R:3:forces:R:3 energy=31715.33052878907 pbc="F F F"
Ga       0.00000000       0.00000000       0.00000000       0.00000000       0.00000000  -87307.40625000
Ga       0.00000000       0.00000000       0.18000000       0.00000000       0.00000000   87307.40625000
2
Properties=species:S:1:pos:R:3:forces:R:3 energy=27394.81295066407 pbc="F F F"
Ga       0.00000000       0.00000000       0.00000000       0.00000000       0.00000000  -71220.03125000
Ga       0.00000000       0.00000000       0.23878788       0.00000000       0.00000000   71220.03125000
2
Properties=species:S:1:pos:R:3:forces:R:3 energy=22538.83834128907 pbc="F F F"
Ga       0.00000000       0.00000000       0.00000000       0.00000000       0.00000000  -97394.25000000
Ga       0.00000000       0.00000000       0.29757576       0.00000000       0.00000000   97394.25000000
2
Properties=species:S:1:pos:R:3:forces:R:3 energy=15917.660606914067 pbc="F F F"
Ga       0.00000000       0.00000000       0.00000000       0.00000000       0.00000000 -124746.85156250
Ga       0.00000000       0.00000000       0.35636364       0.00000000       0.00000000  124746.85156250
2
Properties=species:S:1:pos:R:3:forces:R:3 energy=8463.416466289067 pbc="F F F"
Ga       0.00000000       0.00000000       0.00000000       0.00000000       0.00000000 -121485.05468750
Ga       0.00000000       0.00000000       0.41515152       0.00000000       0.00000000  121485.05468750
2
Properties=species:S:1:pos:R:3:forces:R:3 energy=2719.4435659000264 pbc="F F F"
Ga       0.00000000       0.00000000       0.00000000       0.00000000       0.00000000  -69050.36718750
Ga       0.00000000       0.00000000       0.47393939       0.00000000       0.00000000   69050.36718750
2
Properties=species:S:1:pos:R:3:forces:R:3 energy=445.3895497883293 pbc="F F F"
Ga       0.00000000       0.00000000       0.00000000       0.00000000       0.00000000  -18196.92578125
Ga       0.00000000       0.00000000       0.53272727       0.00000000       0.00000000   18196.92578125
2
Properties=species:S:1:pos:R:3:forces:R:3 energy=-8.868022382575134 pbc="F F F"
Ga       0.00000000       0.00000000       0.00000000       0.00000000       0.00000000    7520.20507812
Ga       0.00000000       0.00000000       0.59151515       0.00000000       0.00000000   -7520.20507812
2
Properties=species:S:1:pos:R:3:forces:R:3 energy=130.64209801560622 pbc="F F F"
Ga       0.00000000       0.00000000       0.00000000       0.00000000       0.00000000    -387.80032349
Ga       0.00000000       0.00000000       0.65030303       0.00000000       0.00000000     387.80032349
2
Properties=species:S:1:pos:R:3:forces:R:3 energy=111.78966577334116 pbc="F F F"
Ga       0.00000000       0.00000000       0.00000000       0.00000000       0.00000000    -276.97579956
Ga       0.00000000       0.00000000       0.70909091       0.00000000       0.00000000     276.97579956
2
Properties=species:S:1:pos:R:3:forces:R:3 energy=96.40338191229269 pbc="F F F"
Ga       0.00000000       0.00000000       0.00000000       0.00000000       0.00000000    -259.89404297
Ga       0.00000000       0.00000000       0.76787879       0.00000000       0.00000000     259.89404297
2
Properties=species:S:1:pos:R:3:forces:R:3 energy=81.17044888686603 pbc="F F F"
Ga       0.00000000       0.00000000       0.00000000       0.00000000       0.00000000    -251.72677612
Ga       0.00000000       0.00000000       0.82666667       0.00000000       0.00000000     251.72677612
2
Properties=species:S:1:pos:R:3:forces:R:3 energy=67.33690704525924 pbc="F F F"
Ga       0.00000000       0.00000000       0.00000000       0.00000000       0.00000000    -218.99034119
Ga       0.00000000       0.00000000       0.88545455       0.00000000       0.00000000     218.99034119
2
Properties=species:S:1:pos:R:3:forces:R:3 energy=55.141274150286705 pbc="F F F"
Ga       0.00000000       0.00000000       0.00000000       0.00000000       0.00000000    -198.06863403
Ga       0.00000000       0.00000000       0.94424242       0.00000000       0.00000000     198.06863403
2
Properties=species:S:1:pos:R:3:forces:R:3 energy=43.87668680100397 pbc="F F F"
Ga       0.00000000       0.00000000       0.00000000       0.00000000       0.00000000    -187.89550781
Ga       0.00000000       0.00000000       1.00303030       0.00000000       0.00000000     187.89550781
2
Properties=species:S:1:pos:R:3:forces:R:3 energy=32.805420699547476 pbc="F F F"
Ga       0.00000000       0.00000000       0.00000000       0.00000000       0.00000000    -186.44308472
Ga       0.00000000       0.00000000       1.06181818       0.00000000       0.00000000     186.44308472
2
Properties=species:S:1:pos:R:3:forces:R:3 energy=22.230027118616285 pbc="F F F"
Ga       0.00000000       0.00000000       0.00000000       0.00000000       0.00000000    -173.90609741
Ga       0.00000000       0.00000000       1.12060606       0.00000000       0.00000000     173.90609741
2
Properties=species:S:1:pos:R:3:forces:R:3 energy=12.305390402132991 pbc="F F F"
Ga       0.00000000       0.00000000       0.00000000       0.00000000       0.00000000    -158.72215271
Ga       0.00000000       0.00000000       1.17939394       0.00000000       0.00000000     158.72215271
2
Properties=species:S:1:pos:R:3:forces:R:3 energy=4.6801311634859015 pbc="F F F"
Ga       0.00000000       0.00000000       0.00000000       0.00000000       0.00000000     -97.17985535
Ga       0.00000000       0.00000000       1.23818182       0.00000000       0.00000000      97.17985535
2
Properties=species:S:1:pos:R:3:forces:R:3 energy=0.1880144397098444 pbc="F F F"
Ga       0.00000000       0.00000000       0.00000000       0.00000000       0.00000000     -63.68029022
Ga       0.00000000       0.00000000       1.29696970       0.00000000       0.00000000      63.68029022
2
Properties=species:S:1:pos:R:3:forces:R:3 energy=-3.2846606271828898 pbc="F F F"
Ga       0.00000000       0.00000000       0.00000000       0.00000000       0.00000000     -55.36990356
Ga       0.00000000       0.00000000       1.35575758       0.00000000       0.00000000      55.36990356
2
Properties=species:S:1:pos:R:3:forces:R:3 energy=-6.316845860153336 pbc="F F F"
Ga       0.00000000       0.00000000       0.00000000       0.00000000       0.00000000     -47.53193665
Ga       0.00000000       0.00000000       1.41454545       0.00000000       0.00000000      47.53193665
2
Properties=species:S:1:pos:R:3:forces:R:3 energy=-8.859394595892438 pbc="F F F"
Ga       0.00000000       0.00000000       0.00000000       0.00000000       0.00000000     -39.01207352
Ga       0.00000000       0.00000000       1.47333333       0.00000000       0.00000000      39.01207352
2
Properties=species:S:1:pos:R:3:forces:R:3 energy=-10.92409614362832 pbc="F F F"
Ga       0.00000000       0.00000000       0.00000000       0.00000000       0.00000000     -31.49066353
Ga       0.00000000       0.00000000       1.53212121       0.00000000       0.00000000      31.49066353
2
Properties=species:S:1:pos:R:3:forces:R:3 energy=-12.595808428195701 pbc="F F F"
Ga       0.00000000       0.00000000       0.00000000       0.00000000       0.00000000     -25.66626358
Ga       0.00000000       0.00000000       1.59090909       0.00000000       0.00000000      25.66626358
2
Properties=species:S:1:pos:R:3:forces:R:3 energy=-13.97116343357987 pbc="F F F"
Ga       0.00000000       0.00000000       0.00000000       0.00000000       0.00000000     -21.32940102
Ga       0.00000000       0.00000000       1.64969697       0.00000000       0.00000000      21.32940102
2
Properties=species:S:1:pos:R:3:forces:R:3 energy=-15.122360964621931 pbc="F F F"
Ga       0.00000000       0.00000000       0.00000000       0.00000000       0.00000000     -17.95304108
Ga       0.00000000       0.00000000       1.70848485       0.00000000       0.00000000      17.95304108
2
Properties=species:S:1:pos:R:3:forces:R:3 energy=-16.092027384027315 pbc="F F F"
Ga       0.00000000       0.00000000       0.00000000       0.00000000       0.00000000     -15.09401226
Ga       0.00000000       0.00000000       1.76727273       0.00000000       0.00000000      15.09401226
2
Properties=species:S:1:pos:R:3:forces:R:3 energy=-16.901773893600772 pbc="F F F"
Ga       0.00000000       0.00000000       0.00000000       0.00000000       0.00000000     -12.48137951
Ga       0.00000000       0.00000000       1.82606061       0.00000000       0.00000000      12.48137951
2
Properties=species:S:1:pos:R:3:forces:R:3 energy=-17.562224407804045 pbc="F F F"
Ga       0.00000000       0.00000000       0.00000000       0.00000000       0.00000000     -10.01126957
Ga       0.00000000       0.00000000       1.88484848       0.00000000       0.00000000      10.01126957
2
Properties=species:S:1:pos:R:3:forces:R:3 energy=-18.082412137681693 pbc="F F F"
Ga       0.00000000       0.00000000       0.00000000       0.00000000       0.00000000      -7.72468472
Ga       0.00000000       0.00000000       1.94363636       0.00000000       0.00000000       7.72468472
2
Properties=species:S:1:pos:R:3:forces:R:3 energy=-18.476115798267546 pbc="F F F"
Ga       0.00000000       0.00000000       0.00000000       0.00000000       0.00000000      -5.72522354
Ga       0.00000000       0.00000000       2.00242424       0.00000000       0.00000000       5.72522354
2
Properties=species:S:1:pos:R:3:forces:R:3 energy=-18.76265117727428 pbc="F F F"
Ga       0.00000000       0.00000000       0.00000000       0.00000000       0.00000000      -4.08523798
Ga       0.00000000       0.00000000       2.06121212       0.00000000       0.00000000       4.08523798
2
Properties=species:S:1:pos:R:3:forces:R:3 energy=-18.963579074319863 pbc="F F F"
Ga       0.00000000       0.00000000       0.00000000       0.00000000       0.00000000      -2.80780387
Ga       0.00000000       0.00000000       2.12000000       0.00000000       0.00000000       2.80780387
2
Properties=species:S:1:pos:R:3:forces:R:3 energy=-19.09890591076031 pbc="F F F"
Ga       0.00000000       0.00000000       0.00000000       0.00000000       0.00000000      -1.84219515
Ga       0.00000000       0.00000000       2.17878788       0.00000000       0.00000000       1.84219515
2
Properties=species:S:1:pos:R:3:forces:R:3 energy=-19.18485596549347 pbc="F F F"
Ga       0.00000000       0.00000000       0.00000000       0.00000000       0.00000000      -1.11540794
Ga       0.00000000       0.00000000       2.23757576       0.00000000       0.00000000       1.11540794
2
Properties=species:S:1:pos:R:3:forces:R:3 energy=-19.233308764133152 pbc="F F F"
Ga       0.00000000       0.00000000       0.00000000       0.00000000       0.00000000      -0.55532664
Ga       0.00000000       0.00000000       2.29636364       0.00000000       0.00000000       0.55532664
2
Properties=species:S:1:pos:R:3:forces:R:3 energy=-19.25226257660623 pbc="F F F"
Ga       0.00000000       0.00000000       0.00000000       0.00000000       0.00000000      -0.10386638
Ga       0.00000000       0.00000000       2.35515152       0.00000000       0.00000000       0.10386638
2
Properties=species:S:1:pos:R:3:forces:R:3 energy=-19.246938768051272 pbc="F F F"
Ga       0.00000000       0.00000000       0.00000000       0.00000000       0.00000000       0.27436838
Ga       0.00000000       0.00000000       2.41393939       0.00000000       0.00000000      -0.27436838
2
Properties=species:S:1:pos:R:3:forces:R:3 energy=-19.221204577944384 pbc="F F F"
Ga       0.00000000       0.00000000       0.00000000       0.00000000       0.00000000       0.59086519
Ga       0.00000000       0.00000000       2.47272727       0.00000000       0.00000000      -0.59086519
2
Properties=species:S:1:pos:R:3:forces:R:3 energy=-19.178713575197467 pbc="F F F"
Ga       0.00000000       0.00000000       0.00000000       0.00000000       0.00000000       0.84378833
Ga       0.00000000       0.00000000       2.53151515       0.00000000       0.00000000      -0.84378833
2
Properties=species:S:1:pos:R:3:forces:R:3 energy=-19.123281307636393 pbc="F F F"
Ga       0.00000000       0.00000000       0.00000000       0.00000000       0.00000000       1.03120613
Ga       0.00000000       0.00000000       2.59030303       0.00000000       0.00000000      -1.03120613
2
Properties=species:S:1:pos:R:3:forces:R:3 energy=-19.05874647024009 pbc="F F F"
Ga       0.00000000       0.00000000       0.00000000       0.00000000       0.00000000       1.15321183
Ga       0.00000000       0.00000000       2.64909091       0.00000000       0.00000000      -1.15321183
2
Properties=species:S:1:pos:R:3:forces:R:3 energy=-18.98902946954807 pbc="F F F"
Ga       0.00000000       0.00000000       0.00000000       0.00000000       0.00000000       1.20683563
Ga       0.00000000       0.00000000       2.70787879       0.00000000       0.00000000      -1.20683563
2
Properties=species:S:1:pos:R:3:forces:R:3 energy=-18.91826857686057 pbc="F F F"
Ga       0.00000000       0.00000000       0.00000000       0.00000000       0.00000000       1.18858778
Ga       0.00000000       0.00000000       2.76666667       0.00000000       0.00000000      -1.18858778
2
Properties=species:S:1:pos:R:3:forces:R:3 energy=-18.85058407084367 pbc="F F F"
Ga       0.00000000       0.00000000       0.00000000       0.00000000       0.00000000       1.10432088
Ga       0.00000000       0.00000000       2.82545455       0.00000000       0.00000000      -1.10432088
2
Properties=species:S:1:pos:R:3:forces:R:3 energy=-18.789313297596475 pbc="F F F"
Ga       0.00000000       0.00000000       0.00000000       0.00000000       0.00000000       0.97524744
Ga       0.00000000       0.00000000       2.88424242       0.00000000       0.00000000      -0.97524744
2
Properties=species:S:1:pos:R:3:forces:R:3 energy=-18.73615730401416 pbc="F F F"
Ga       0.00000000       0.00000000       0.00000000       0.00000000       0.00000000       0.83407164
Ga       0.00000000       0.00000000       2.94303030       0.00000000       0.00000000      -0.83407164
2
Properties=species:S:1:pos:R:3:forces:R:3 energy=-18.69084078442285 pbc="F F F"
Ga       0.00000000       0.00000000       0.00000000       0.00000000       0.00000000       0.71320575
Ga       0.00000000       0.00000000       3.00181818       0.00000000       0.00000000      -0.71320575
2
Properties=species:S:1:pos:R:3:forces:R:3 energy=-18.65149118852761 pbc="F F F"
Ga       0.00000000       0.00000000       0.00000000       0.00000000       0.00000000       0.63309956
Ga       0.00000000       0.00000000       3.06060606       0.00000000       0.00000000      -0.63309956
2
Properties=species:S:1:pos:R:3:forces:R:3 energy=-18.61549615787975 pbc="F F F"
Ga       0.00000000       0.00000000       0.00000000       0.00000000       0.00000000       0.59889376
Ga       0.00000000       0.00000000       3.11939394       0.00000000       0.00000000      -0.59889376
2
Properties=species:S:1:pos:R:3:forces:R:3 energy=-18.580280580658574 pbc="F F F"
Ga       0.00000000       0.00000000       0.00000000       0.00000000       0.00000000       0.60514259
Ga       0.00000000       0.00000000       3.17818182       0.00000000       0.00000000      -0.60514259
2
Properties=species:S:1:pos:R:3:forces:R:3 energy=-18.54374858924499 pbc="F F F"
Ga       0.00000000       0.00000000       0.00000000       0.00000000       0.00000000       0.64192694
Ga       0.00000000       0.00000000       3.23696970       0.00000000       0.00000000      -0.64192694
2
Properties=species:S:1:pos:R:3:forces:R:3 energy=-18.504419603369023 pbc="F F F"
Ga       0.00000000       0.00000000       0.00000000       0.00000000       0.00000000       0.69847518
Ga       0.00000000       0.00000000       3.29575758       0.00000000       0.00000000      -0.69847518
2
Properties=species:S:1:pos:R:3:forces:R:3 energy=-18.461438832733595 pbc="F F F"
Ga       0.00000000       0.00000000       0.00000000       0.00000000       0.00000000       0.76450038
Ga       0.00000000       0.00000000       3.35454545       0.00000000       0.00000000      -0.76450038
2
Properties=species:S:1:pos:R:3:forces:R:3 energy=-18.41453104923271 pbc="F F F"
Ga       0.00000000       0.00000000       0.00000000       0.00000000       0.00000000       0.83058012
Ga       0.00000000       0.00000000       3.41333333       0.00000000       0.00000000      -0.83058012
2
Properties=species:S:1:pos:R:3:forces:R:3 energy=-18.363942685090993 pbc="F F F"
Ga       0.00000000       0.00000000       0.00000000       0.00000000       0.00000000       0.88851756
Ga       0.00000000       0.00000000       3.47212121       0.00000000       0.00000000      -0.88851756
2
Properties=species:S:1:pos:R:3:forces:R:3 energy=-18.310347539323757 pbc="F F F"
Ga       0.00000000       0.00000000       0.00000000       0.00000000       0.00000000       0.93206173
Ga       0.00000000       0.00000000       3.53090909       0.00000000       0.00000000      -0.93206173
2
Properties=species:S:1:pos:R:3:forces:R:3 energy=-18.254706381544214 pbc="F F F"
Ga       0.00000000       0.00000000       0.00000000       0.00000000       0.00000000       0.95781374
Ga       0.00000000       0.00000000       3.58969697       0.00000000       0.00000000      -0.95781374
2
Properties=species:S:1:pos:R:3:forces:R:3 energy=-18.198082357298592 pbc="F F F"
Ga       0.00000000       0.00000000       0.00000000       0.00000000       0.00000000       0.96573853
Ga       0.00000000       0.00000000       3.64848485       0.00000000       0.00000000      -0.96573853
2
Properties=species:S:1:pos:R:3:forces:R:3 energy=-18.141452418729024 pbc="F F F"
Ga       0.00000000       0.00000000       0.00000000       0.00000000       0.00000000       0.95875967
Ga       0.00000000       0.00000000       3.70727273       0.00000000       0.00000000      -0.95875967
2
Properties=species:S:1:pos:R:3:forces:R:3 energy=-18.085556778663964 pbc="F F F"
Ga       0.00000000       0.00000000       0.00000000       0.00000000       0.00000000       0.94148070
Ga       0.00000000       0.00000000       3.76606061       0.00000000       0.00000000      -0.94148070
2
Properties=species:S:1:pos:R:3:forces:R:3 energy=-18.03086658231003 pbc="F F F"
Ga       0.00000000       0.00000000       0.00000000       0.00000000       0.00000000       0.91858214
Ga       0.00000000       0.00000000       3.82484848       0.00000000       0.00000000      -0.91858214
2
Properties=species:S:1:pos:R:3:forces:R:3 energy=-17.97759538618983 pbc="F F F"
Ga       0.00000000       0.00000000       0.00000000       0.00000000       0.00000000       0.89358431
Ga       0.00000000       0.00000000       3.88363636       0.00000000       0.00000000      -0.89358431
2
Properties=species:S:1:pos:R:3:forces:R:3 energy=-17.925806025102297 pbc="F F F"
Ga       0.00000000       0.00000000       0.00000000       0.00000000       0.00000000       0.86829478
Ga       0.00000000       0.00000000       3.94242424       0.00000000       0.00000000      -0.86829478
2
Properties=species:S:1:pos:R:3:forces:R:3 energy=-17.875505981138232 pbc="F F F"
Ga       0.00000000       0.00000000       0.00000000       0.00000000       0.00000000       0.84290022
Ga       0.00000000       0.00000000       4.00121212       0.00000000       0.00000000      -0.84290022
2
Properties=species:S:1:pos:R:3:forces:R:3 energy=-17.826721787700006 pbc="F F F"
Ga       0.00000000       0.00000000       0.00000000       0.00000000       0.00000000       0.81648278
Ga       0.00000000       0.00000000       4.06000000       0.00000000       0.00000000      -0.81648278
2
Properties=species:S:1:pos:R:3:forces:R:3 energy=-17.779554366370586 pbc="F F F"
Ga       0.00000000       0.00000000       0.00000000       0.00000000       0.00000000       0.78771043
Ga       0.00000000       0.00000000       4.11878788       0.00000000       0.00000000      -0.78771043
2
Properties=species:S:1:pos:R:3:forces:R:3 energy=-17.734175208256488 pbc="F F F"
Ga       0.00000000       0.00000000       0.00000000       0.00000000       0.00000000       0.75544727
Ga       0.00000000       0.00000000       4.17757576       0.00000000       0.00000000      -0.75544727
2
Properties=species:S:1:pos:R:3:forces:R:3 energy=-17.690811127869996 pbc="F F F"
Ga       0.00000000       0.00000000       0.00000000       0.00000000       0.00000000       0.71916759
Ga       0.00000000       0.00000000       4.23636364       0.00000000       0.00000000      -0.71916759
2
Properties=species:S:1:pos:R:3:forces:R:3 energy=-17.64969276471608 pbc="F F F"
Ga       0.00000000       0.00000000       0.00000000       0.00000000       0.00000000       0.67908198
Ga       0.00000000       0.00000000       4.29515152       0.00000000       0.00000000      -0.67908198
2
Properties=species:S:1:pos:R:3:forces:R:3 energy=-17.611025988110068 pbc="F F F"
Ga       0.00000000       0.00000000       0.00000000       0.00000000       0.00000000       0.63603306
Ga       0.00000000       0.00000000       4.35393939       0.00000000       0.00000000      -0.63603306
2
Properties=species:S:1:pos:R:3:forces:R:3 energy=-17.574946112098935 pbc="F F F"
Ga       0.00000000       0.00000000       0.00000000       0.00000000       0.00000000       0.59121740
Ga       0.00000000       0.00000000       4.41272727       0.00000000       0.00000000      -0.59121740
2
Properties=species:S:1:pos:R:3:forces:R:3 energy=-17.541521735501156 pbc="F F F"
Ga       0.00000000       0.00000000       0.00000000       0.00000000       0.00000000       0.54592431
Ga       0.00000000       0.00000000       4.47151515       0.00000000       0.00000000      -0.54592431
2
Properties=species:S:1:pos:R:3:forces:R:3 energy=-17.510745184572688 pbc="F F F"
Ga       0.00000000       0.00000000       0.00000000       0.00000000       0.00000000       0.50129551
Ga       0.00000000       0.00000000       4.53030303       0.00000000       0.00000000      -0.50129551
2
Properties=species:S:1:pos:R:3:forces:R:3 energy=-17.4825516078761 pbc="F F F"
Ga       0.00000000       0.00000000       0.00000000       0.00000000       0.00000000       0.45819086
Ga       0.00000000       0.00000000       4.58909091       0.00000000       0.00000000      -0.45819086
2
Properties=species:S:1:pos:R:3:forces:R:3 energy=-17.456832331680797 pbc="F F F"
Ga       0.00000000       0.00000000       0.00000000       0.00000000       0.00000000       0.41715252
Ga       0.00000000       0.00000000       4.64787879       0.00000000       0.00000000      -0.41715252
2
Properties=species:S:1:pos:R:3:forces:R:3 energy=-17.43345964361588 pbc="F F F"
Ga       0.00000000       0.00000000       0.00000000       0.00000000       0.00000000       0.37841737
Ga       0.00000000       0.00000000       4.70666667       0.00000000       0.00000000      -0.37841737
2
Properties=species:S:1:pos:R:3:forces:R:3 energy=-17.412294438695778 pbc="F F F"
Ga       0.00000000       0.00000000       0.00000000       0.00000000       0.00000000       0.34201354
Ga       0.00000000       0.00000000       4.76545455       0.00000000       0.00000000      -0.34201354
2
Properties=species:S:1:pos:R:3:forces:R:3 energy=-17.39320147414951 pbc="F F F"
Ga       0.00000000       0.00000000       0.00000000       0.00000000       0.00000000       0.30789942
Ga       0.00000000       0.00000000       4.82424242       0.00000000       0.00000000      -0.30789942
2
Properties=species:S:1:pos:R:3:forces:R:3 energy=-17.37604747236749 pbc="F F F"
Ga       0.00000000       0.00000000       0.00000000       0.00000000       0.00000000       0.27614263
Ga       0.00000000       0.00000000       4.88303030       0.00000000       0.00000000      -0.27614263
2
Properties=species:S:1:pos:R:3:forces:R:3 energy=-17.360683939716655 pbc="F F F"
Ga       0.00000000       0.00000000       0.00000000       0.00000000       0.00000000       0.24699293
Ga       0.00000000       0.00000000       4.94181818       0.00000000       0.00000000      -0.24699293
2
Properties=species:S:1:pos:R:3:forces:R:3 energy=-17.34694717208418 pbc="F F F"
Ga       0.00000000       0.00000000       0.00000000       0.00000000       0.00000000       0.22090724
Ga       0.00000000       0.00000000       5.00060606       0.00000000       0.00000000      -0.22090724
2
Properties=species:S:1:pos:R:3:forces:R:3 energy=-17.334639193270466 pbc="F F F"
Ga       0.00000000       0.00000000       0.00000000       0.00000000       0.00000000       0.19834454
Ga       0.00000000       0.00000000       5.05939394       0.00000000       0.00000000      -0.19834454
2
Properties=species:S:1:pos:R:3:forces:R:3 energy=-17.32355062337385 pbc="F F F"
Ga       0.00000000       0.00000000       0.00000000       0.00000000       0.00000000       0.17956991
Ga       0.00000000       0.00000000       5.11818182       0.00000000       0.00000000      -0.17956991
2
Properties=species:S:1:pos:R:3:forces:R:3 energy=-17.313454959912526 pbc="F F F"
Ga       0.00000000       0.00000000       0.00000000       0.00000000       0.00000000       0.16445161
Ga       0.00000000       0.00000000       5.17696970       0.00000000       0.00000000      -0.16445161
2
Properties=species:S:1:pos:R:3:forces:R:3 energy=-17.30415626074841 pbc="F F F"
Ga       0.00000000       0.00000000       0.00000000       0.00000000       0.00000000       0.15233375
Ga       0.00000000       0.00000000       5.23575758       0.00000000       0.00000000      -0.15233375
2
Properties=species:S:1:pos:R:3:forces:R:3 energy=-17.295513928532003 pbc="F F F"
Ga       0.00000000       0.00000000       0.00000000       0.00000000       0.00000000       0.14182271
Ga       0.00000000       0.00000000       5.29454545       0.00000000       0.00000000      -0.14182271
2
Properties=species:S:1:pos:R:3:forces:R:3 energy=-17.28749039679405 pbc="F F F"
Ga       0.00000000       0.00000000       0.00000000       0.00000000       0.00000000       0.13087082
Ga       0.00000000       0.00000000       5.35333333       0.00000000       0.00000000      -0.13087082
2
Properties=species:S:1:pos:R:3:forces:R:3 energy=-17.280158748252717 pbc="F F F"
Ga       0.00000000       0.00000000       0.00000000       0.00000000       0.00000000       0.11846837
Ga       0.00000000       0.00000000       5.41212121       0.00000000       0.00000000      -0.11846837
2
Properties=species:S:1:pos:R:3:forces:R:3 energy=-17.273534854670654 pbc="F F F"
Ga       0.00000000       0.00000000       0.00000000       0.00000000       0.00000000       0.10746880
Ga       0.00000000       0.00000000       5.47090909       0.00000000       0.00000000      -0.10746880
2
Properties=species:S:1:pos:R:3:forces:R:3 energy=-17.267415256972935 pbc="F F F"
Ga       0.00000000       0.00000000       0.00000000       0.00000000       0.00000000       0.10155004
Ga       0.00000000       0.00000000       5.52969697       0.00000000       0.00000000      -0.10155004
2
Properties=species:S:1:pos:R:3:forces:R:3 energy=-17.261565985634114 pbc="F F F"
Ga       0.00000000       0.00000000       0.00000000       0.00000000       0.00000000       0.09708630
Ga       0.00000000       0.00000000       5.58848485       0.00000000       0.00000000      -0.09708630
2
Properties=species:S:1:pos:R:3:forces:R:3 energy=-17.256086841300363 pbc="F F F"
Ga       0.00000000       0.00000000       0.00000000       0.00000000       0.00000000       0.08875901
Ga       0.00000000       0.00000000       5.64727273       0.00000000       0.00000000      -0.08875901
2
Properties=species:S:1:pos:R:3:forces:R:3 energy=-17.251129117487267 pbc="F F F"
Ga       0.00000000       0.00000000       0.00000000       0.00000000       0.00000000       0.08061936
Ga       0.00000000       0.00000000       5.70606061       0.00000000       0.00000000      -0.08061936
2
Properties=species:S:1:pos:R:3:forces:R:3 energy=-17.24647978273873 pbc="F F F"
Ga       0.00000000       0.00000000       0.00000000       0.00000000       0.00000000       0.07785186
Ga       0.00000000       0.00000000       5.76484848       0.00000000       0.00000000      -0.07785186
2
Properties=species:S:1:pos:R:3:forces:R:3 energy=-17.24206692841068 pbc="F F F"
Ga       0.00000000       0.00000000       0.00000000       0.00000000       0.00000000       0.06997778
Ga       0.00000000       0.00000000       5.82363636       0.00000000       0.00000000      -0.06997778
2
Properties=species:S:1:pos:R:3:forces:R:3 energy=-17.238627326833296 pbc="F F F"
Ga       0.00000000       0.00000000       0.00000000       0.00000000       0.00000000       0.04491049
Ga       0.00000000       0.00000000       5.88242424       0.00000000       0.00000000      -0.04491049
2
Properties=species:S:1:pos:R:3:forces:R:3 energy=-17.236871016569637 pbc="F F F"
Ga       0.00000000       0.00000000       0.00000000       0.00000000       0.00000000       0.01585130
Ga       0.00000000       0.00000000       5.94121212       0.00000000       0.00000000      -0.01585130
2
Properties=species:S:1:pos:R:3:forces:R:3 energy=-17.236415085026433 pbc="F F F"
Ga       0.00000000       0.00000000       0.00000000       0.00000000       0.00000000       0.00366873
Ga       0.00000000       0.00000000       6.00000000       0.00000000       0.00000000      -0.00366873
