2
Properties=species:S:1:pos:R:3:forces:R:3 energy=-86624.56531035839 pbc="F F F"
Gd       0.00000000       0.00000000       0.00000000       0.00000000       0.00000000 -199351.29687500
Gd       0.00000000       0.00000000       0.18000000       0.00000000       0.00000000  199351.29687500
2
Properties=species:S:1:pos:R:3:forces:R:3 energy=-92954.45593535839 pbc="F F F"
Gd       0.00000000       0.00000000       0.00000000       0.00000000       0.00000000  -43200.72265625
Gd       0.00000000       0.00000000       0.23878788       0.00000000       0.00000000   43200.72265625
2
Properties=species:S:1:pos:R:3:forces:R:3 energy=-93193.52624785839 pbc="F F F"
Gd       0.00000000       0.00000000       0.00000000       0.00000000       0.00000000   30283.93554688
Gd       0.00000000       0.00000000       0.29757576       0.00000000       0.00000000  -30283.93554688
2
Properties=species:S:1:pos:R:3:forces:R:3 energy=-89567.22156035839 pbc="F F F"
Gd       0.00000000       0.00000000       0.00000000       0.00000000       0.00000000   93487.07812500
Gd       0.00000000       0.00000000       0.35636364       0.00000000       0.00000000  -93487.07812500
2
Properties=species:S:1:pos:R:3:forces:R:3 energy=-82083.53406035839 pbc="F F F"
Gd       0.00000000       0.00000000       0.00000000       0.00000000       0.00000000  162136.06250000
Gd       0.00000000       0.00000000       0.41515152       0.00000000       0.00000000 -162136.06250000
2
Properties=species:S:1:pos:R:3:forces:R:3 energy=-70477.19031035522 pbc="F F F"
Gd       0.00000000       0.00000000       0.00000000       0.00000000       0.00000000  231742.78125000
Gd       0.00000000       0.00000000       0.47393939       0.00000000       0.00000000 -231742.78125000
2
Properties=species:S:1:pos:R:3:forces:R:3 energy=-55162.100466605225 pbc="F F F"
Gd       0.00000000       0.00000000       0.00000000       0.00000000       0.00000000  284498.56250000
Gd       0.00000000       0.00000000       0.53272727       0.00000000       0.00000000 -284498.56250000
2
Properties=species:S:1:pos:R:3:forces:R:3 energy=-37834.41296660205 pbc="F F F"
Gd       0.00000000       0.00000000       0.00000000       0.00000000       0.00000000  296311.81250000
Gd       0.00000000       0.00000000       0.59151515       0.00000000       0.00000000 -296311.81250000
2
Properties=species:S:1:pos:R:3:forces:R:3 energy=-21445.40906034572 pbc="F F F"
Gd       0.00000000       0.00000000       0.00000000       0.00000000       0.00000000  251781.96875000
Gd       0.00000000       0.00000000       0.65030303       0.00000000       0.00000000 -251781.96875000
2
Properties=species:S:1:pos:R:3:forces:R:3 energy=-9132.071169714383 pbc="F F F"
Gd       0.00000000       0.00000000       0.00000000       0.00000000       0.00000000  162419.71875000
Gd       0.00000000       0.00000000       0.70909091       0.00000000       0.00000000 -162419.71875000
2
Properties=species:S:1:pos:R:3:forces:R:3 energy=-2430.633425561087 pbc="F F F"
Gd       0.00000000       0.00000000       0.00000000       0.00000000       0.00000000   61461.51953125
Gd       0.00000000       0.00000000       0.76787879       0.00000000       0.00000000  -61461.51953125
2
Properties=species:S:1:pos:R:3:forces:R:3 energy=-358.6986416033653 pbc="F F F"
Gd       0.00000000       0.00000000       0.00000000       0.00000000       0.00000000   15171.93164062
Gd       0.00000000       0.00000000       0.82666667       0.00000000       0.00000000  -15171.93164062
2
Properties=species:S:1:pos:R:3:forces:R:3 energy=-15.87582663661645 pbc="F F F"
Gd       0.00000000       0.00000000       0.00000000       0.00000000       0.00000000    4147.36132812
Gd       0.00000000       0.00000000       0.88545455       0.00000000       0.00000000   -4147.36132812
2
Properties=species:S:1:pos:R:3:forces:R:3 energy=19.888180969756792 pbc="F F F"
Gd       0.00000000       0.00000000       0.00000000       0.00000000       0.00000000     191.10807800
Gd       0.00000000       0.00000000       0.94424242       0.00000000       0.00000000    -191.10807800
2
Properties=species:S:1:pos:R:3:forces:R:3 energy=-6.603174875554148 pbc="F F F"
Gd       0.00000000       0.00000000       0.00000000       0.00000000       0.00000000    -567.97991943
Gd       0.00000000       0.00000000       1.00303030       0.00000000       0.00000000     567.97991943
2
Properties=species:S:1:pos:R:3:forces:R:3 energy=-23.927076937572924 pbc="F F F"
Gd       0.00000000       0.00000000       0.00000000       0.00000000       0.00000000    -126.98844147
Gd       0.00000000       0.00000000       1.06181818       0.00000000       0.00000000     126.98844147
2
Properties=species:S:1:pos:R:3:forces:R:3 energy=-31.340929537356473 pbc="F F F"
Gd       0.00000000       0.00000000       0.00000000       0.00000000       0.00000000    -114.70617676
Gd       0.00000000       0.00000000       1.12060606       0.00000000       0.00000000     114.70617676
2
Properties=species:S:1:pos:R:3:forces:R:3 energy=-37.41990128135611 pbc="F F F"
Gd       0.00000000       0.00000000       0.00000000       0.00000000       0.00000000     -96.23442078
Gd       0.00000000       0.00000000       1.17939394       0.00000000       0.00000000      96.23442078
2
Properties=species:S:1:pos:R:3:forces:R:3 energy=-42.87555527358776 pbc="F F F"
Gd       0.00000000       0.00000000       0.00000000       0.00000000       0.00000000     -88.49763489
Gd       0.00000000       0.00000000       1.23818182       0.00000000       0.00000000      88.49763489
2
Properties=species:S:1:pos:R:3:forces:R:3 energy=-47.71191601016318 pbc="F F F"
Gd       0.00000000       0.00000000       0.00000000       0.00000000       0.00000000     -76.21274567
Gd       0.00000000       0.00000000       1.29696970       0.00000000       0.00000000      76.21274567
2
Properties=species:S:1:pos:R:3:forces:R:3 energy=-51.98522356494993 pbc="F F F"
Gd       0.00000000       0.00000000       0.00000000       0.00000000       0.00000000     -70.78622437
Gd       0.00000000       0.00000000       1.35575758       0.00000000       0.00000000      70.78622437
2
Properties=species:S:1:pos:R:3:forces:R:3 energy=-56.085923636089156 pbc="F F F"
Gd       0.00000000       0.00000000       0.00000000       0.00000000       0.00000000     -67.68359375
Gd       0.00000000       0.00000000       1.41454545       0.00000000       0.00000000      67.68359375
2
Properties=species:S:1:pos:R:3:forces:R:3 energy=-59.83966166402254 pbc="F F F"
Gd       0.00000000       0.00000000       0.00000000       0.00000000       0.00000000     -60.44784164
Gd       0.00000000       0.00000000       1.47333333       0.00000000       0.00000000      60.44784164
2
Properties=species:S:1:pos:R:3:forces:R:3 energy=-63.40366419065925 pbc="F F F"
Gd       0.00000000       0.00000000       0.00000000       0.00000000       0.00000000     -62.97180939
Gd       0.00000000       0.00000000       1.53212121       0.00000000       0.00000000      62.97180939
2
Properties=species:S:1:pos:R:3:forces:R:3 energy=-67.33706664192363 pbc="F F F"
Gd       0.00000000       0.00000000       0.00000000       0.00000000       0.00000000     -69.76512909
Gd       0.00000000       0.00000000       1.59090909       0.00000000       0.00000000      69.76512909
2
Properties=species:S:1:pos:R:3:forces:R:3 energy=-71.32634665677372 pbc="F F F"
Gd       0.00000000       0.00000000       0.00000000       0.00000000       0.00000000     -62.94490051
Gd       0.00000000       0.00000000       1.64969697       0.00000000       0.00000000      62.94490051
2
Properties=species:S:1:pos:R:3:forces:R:3 energy=-74.37919465697749 pbc="F F F"
Gd       0.00000000       0.00000000       0.00000000       0.00000000       0.00000000     -38.14879608
Gd       0.00000000       0.00000000       1.70848485       0.00000000       0.00000000      38.14879608
2
Properties=species:S:1:pos:R:3:forces:R:3 energy=-75.65743006411279 pbc="F F F"
Gd       0.00000000       0.00000000       0.00000000       0.00000000       0.00000000      -6.25694752
Gd       0.00000000       0.00000000       1.76727273       0.00000000       0.00000000       6.25694752
2
Properties=species:S:1:pos:R:3:forces:R:3 energy=-75.43749634695362 pbc="F F F"
Gd       0.00000000       0.00000000       0.00000000       0.00000000       0.00000000      10.28271198
Gd       0.00000000       0.00000000       1.82606061       0.00000000       0.00000000     -10.28271198
2
Properties=species:S:1:pos:R:3:forces:R:3 energy=-74.78029129938632 pbc="F F F"
Gd       0.00000000       0.00000000       0.00000000       0.00000000       0.00000000      10.22316837
Gd       0.00000000       0.00000000       1.88484848       0.00000000       0.00000000     -10.22316837
2
Properties=species:S:1:pos:R:3:forces:R:3 energy=-74.34648231391796 pbc="F F F"
Gd       0.00000000       0.00000000       0.00000000       0.00000000       0.00000000       4.30100250
Gd       0.00000000       0.00000000       1.94363636       0.00000000       0.00000000      -4.30100250
2
Properties=species:S:1:pos:R:3:forces:R:3 energy=-74.25550752550534 pbc="F F F"
Gd       0.00000000       0.00000000       0.00000000       0.00000000       0.00000000      -0.82578176
Gd       0.00000000       0.00000000       2.00242424       0.00000000       0.00000000       0.82578176
2
Properties=species:S:1:pos:R:3:forces:R:3 energy=-74.39540553772413 pbc="F F F"
Gd       0.00000000       0.00000000       0.00000000       0.00000000       0.00000000      -3.56373835
Gd       0.00000000       0.00000000       2.06121212       0.00000000       0.00000000       3.56373835
2
Properties=species:S:1:pos:R:3:forces:R:3 energy=-74.64031418147495 pbc="F F F"
Gd       0.00000000       0.00000000       0.00000000       0.00000000       0.00000000      -4.55553579
Gd       0.00000000       0.00000000       2.12000000       0.00000000       0.00000000       4.55553579
2
Properties=species:S:1:pos:R:3:forces:R:3 energy=-74.91354273858019 pbc="F F F"
Gd       0.00000000       0.00000000       0.00000000       0.00000000       0.00000000      -4.64304924
Gd       0.00000000       0.00000000       2.17878788       0.00000000       0.00000000       4.64304924
2
Properties=species:S:1:pos:R:3:forces:R:3 energy=-75.17904227711408 pbc="F F F"
Gd       0.00000000       0.00000000       0.00000000       0.00000000       0.00000000      -4.35563421
Gd       0.00000000       0.00000000       2.23757576       0.00000000       0.00000000       4.35563421
2
Properties=species:S:1:pos:R:3:forces:R:3 energy=-75.42367491950519 pbc="F F F"
Gd       0.00000000       0.00000000       0.00000000       0.00000000       0.00000000      -3.96149945
Gd       0.00000000       0.00000000       2.29636364       0.00000000       0.00000000       3.96149945
2
Properties=species:S:1:pos:R:3:forces:R:3 energy=-75.64467876474458 pbc="F F F"
Gd       0.00000000       0.00000000       0.00000000       0.00000000       0.00000000      -3.55654907
Gd       0.00000000       0.00000000       2.35515152       0.00000000       0.00000000       3.55654907
2
Properties=species:S:1:pos:R:3:forces:R:3 energy=-75.84152732125318 pbc="F F F"
Gd       0.00000000       0.00000000       0.00000000       0.00000000       0.00000000      -3.13487220
Gd       0.00000000       0.00000000       2.41393939       0.00000000       0.00000000       3.13487220
2
Properties=species:S:1:pos:R:3:forces:R:3 energy=-76.01238947573874 pbc="F F F"
Gd       0.00000000       0.00000000       0.00000000       0.00000000       0.00000000      -2.67036581
Gd       0.00000000       0.00000000       2.47272727       0.00000000       0.00000000       2.67036581
2
Properties=species:S:1:pos:R:3:forces:R:3 energy=-76.15490002402976 pbc="F F F"
Gd       0.00000000       0.00000000       0.00000000       0.00000000       0.00000000      -2.17709064
Gd       0.00000000       0.00000000       2.53151515       0.00000000       0.00000000       2.17709064
2
Properties=species:S:1:pos:R:3:forces:R:3 energy=-76.26886052900849 pbc="F F F"
Gd       0.00000000       0.00000000       0.00000000       0.00000000       0.00000000      -1.70912313
Gd       0.00000000       0.00000000       2.59030303       0.00000000       0.00000000       1.70912313
2
Properties=species:S:1:pos:R:3:forces:R:3 energy=-76.35739894264638 pbc="F F F"
Gd       0.00000000       0.00000000       0.00000000       0.00000000       0.00000000      -1.31873679
Gd       0.00000000       0.00000000       2.64909091       0.00000000       0.00000000       1.31873679
2
Properties=species:S:1:pos:R:3:forces:R:3 energy=-76.42576420443362 pbc="F F F"
Gd       0.00000000       0.00000000       0.00000000       0.00000000       0.00000000      -1.02131379
Gd       0.00000000       0.00000000       2.70787879       0.00000000       0.00000000       1.02131379
2
Properties=species:S:1:pos:R:3:forces:R:3 energy=-76.478831385018 pbc="F F F"
Gd       0.00000000       0.00000000       0.00000000       0.00000000       0.00000000      -0.79228944
Gd       0.00000000       0.00000000       2.76666667       0.00000000       0.00000000       0.79228944
2
Properties=species:S:1:pos:R:3:forces:R:3 energy=-76.51940799388105 pbc="F F F"
Gd       0.00000000       0.00000000       0.00000000       0.00000000       0.00000000      -0.58869255
Gd       0.00000000       0.00000000       2.82545455       0.00000000       0.00000000       0.58869255
2
Properties=species:S:1:pos:R:3:forces:R:3 energy=-76.54782197302649 pbc="F F F"
Gd       0.00000000       0.00000000       0.00000000       0.00000000       0.00000000      -0.37390476
Gd       0.00000000       0.00000000       2.88424242       0.00000000       0.00000000       0.37390476
2
Properties=species:S:1:pos:R:3:forces:R:3 energy=-76.56279909160642 pbc="F F F"
Gd       0.00000000       0.00000000       0.00000000       0.00000000       0.00000000      -0.13056396
Gd       0.00000000       0.00000000       2.94303030       0.00000000       0.00000000       0.13056396
2
Properties=species:S:1:pos:R:3:forces:R:3 energy=-76.56262260121889 pbc="F F F"
Gd       0.00000000       0.00000000       0.00000000       0.00000000       0.00000000       0.14039430
Gd       0.00000000       0.00000000       3.00181818       0.00000000       0.00000000      -0.14039430
2
Properties=species:S:1:pos:R:3:forces:R:3 energy=-76.54597246455452 pbc="F F F"
Gd       0.00000000       0.00000000       0.00000000       0.00000000       0.00000000       0.42760524
Gd       0.00000000       0.00000000       3.06060606       0.00000000       0.00000000      -0.42760524
2
Properties=species:S:1:pos:R:3:forces:R:3 energy=-76.51231446718894 pbc="F F F"
Gd       0.00000000       0.00000000       0.00000000       0.00000000       0.00000000       0.71669281
Gd       0.00000000       0.00000000       3.11939394       0.00000000       0.00000000      -0.71669281
2
Properties=species:S:1:pos:R:3:forces:R:3 energy=-76.46193073674476 pbc="F F F"
Gd       0.00000000       0.00000000       0.00000000       0.00000000       0.00000000       0.99421048
Gd       0.00000000       0.00000000       3.17818182       0.00000000       0.00000000      -0.99421048
2
Properties=species:S:1:pos:R:3:forces:R:3 energy=-76.3958663165391 pbc="F F F"
Gd       0.00000000       0.00000000       0.00000000       0.00000000       0.00000000       1.24893808
Gd       0.00000000       0.00000000       3.23696970       0.00000000       0.00000000      -1.24893808
2
Properties=species:S:1:pos:R:3:forces:R:3 energy=-76.31570793690076 pbc="F F F"
Gd       0.00000000       0.00000000       0.00000000       0.00000000       0.00000000       1.47231305
Gd       0.00000000       0.00000000       3.29575758       0.00000000       0.00000000      -1.47231305
2
Properties=species:S:1:pos:R:3:forces:R:3 energy=-76.22348479977926 pbc="F F F"
Gd       0.00000000       0.00000000       0.00000000       0.00000000       0.00000000       1.65846860
Gd       0.00000000       0.00000000       3.35454545       0.00000000       0.00000000      -1.65846860
2
Properties=species:S:1:pos:R:3:forces:R:3 energy=-76.12151603361971 pbc="F F F"
Gd       0.00000000       0.00000000       0.00000000       0.00000000       0.00000000       1.80360138
Gd       0.00000000       0.00000000       3.41333333       0.00000000       0.00000000      -1.80360138
2
Properties=species:S:1:pos:R:3:forces:R:3 energy=-76.01228856444575 pbc="F F F"
Gd       0.00000000       0.00000000       0.00000000       0.00000000       0.00000000       1.90466726
Gd       0.00000000       0.00000000       3.47212121       0.00000000       0.00000000      -1.90466726
2
Properties=species:S:1:pos:R:3:forces:R:3 energy=-75.89850296667039 pbc="F F F"
Gd       0.00000000       0.00000000       0.00000000       0.00000000       0.00000000       1.95826292
Gd       0.00000000       0.00000000       3.53090909       0.00000000       0.00000000      -1.95826292
2
Properties=species:S:1:pos:R:3:forces:R:3 energy=-75.78305052422739 pbc="F F F"
Gd       0.00000000       0.00000000       0.00000000       0.00000000       0.00000000       1.96072984
Gd       0.00000000       0.00000000       3.58969697       0.00000000       0.00000000      -1.96072984
2
Properties=species:S:1:pos:R:3:forces:R:3 energy=-75.66901324957814 pbc="F F F"
Gd       0.00000000       0.00000000       0.00000000       0.00000000       0.00000000       1.90990901
Gd       0.00000000       0.00000000       3.64848485       0.00000000       0.00000000      -1.90990901
2
Properties=species:S:1:pos:R:3:forces:R:3 energy=-75.55949603228024 pbc="F F F"
Gd       0.00000000       0.00000000       0.00000000       0.00000000       0.00000000       1.80793607
Gd       0.00000000       0.00000000       3.70727273       0.00000000       0.00000000      -1.80793607
2
Properties=species:S:1:pos:R:3:forces:R:3 energy=-75.45727571059774 pbc="F F F"
Gd       0.00000000       0.00000000       0.00000000       0.00000000       0.00000000       1.66356945
Gd       0.00000000       0.00000000       3.76606061       0.00000000       0.00000000      -1.66356945
2
Properties=species:S:1:pos:R:3:forces:R:3 energy=-75.36442718365177 pbc="F F F"
Gd       0.00000000       0.00000000       0.00000000       0.00000000       0.00000000       1.49229503
Gd       0.00000000       0.00000000       3.82484848       0.00000000       0.00000000      -1.49229503
2
Properties=species:S:1:pos:R:3:forces:R:3 energy=-75.28197248461468 pbc="F F F"
Gd       0.00000000       0.00000000       0.00000000       0.00000000       0.00000000       1.31340384
Gd       0.00000000       0.00000000       3.88363636       0.00000000       0.00000000      -1.31340384
2
Properties=species:S:1:pos:R:3:forces:R:3 energy=-75.20978922955958 pbc="F F F"
Gd       0.00000000       0.00000000       0.00000000       0.00000000       0.00000000       1.14529443
Gd       0.00000000       0.00000000       3.94242424       0.00000000       0.00000000      -1.14529443
2
Properties=species:S:1:pos:R:3:forces:R:3 energy=-75.14683186831782 pbc="F F F"
Gd       0.00000000       0.00000000       0.00000000       0.00000000       0.00000000       1.00141931
Gd       0.00000000       0.00000000       4.00121212       0.00000000       0.00000000      -1.00141931
2
Properties=species:S:1:pos:R:3:forces:R:3 energy=-75.09143685392462 pbc="F F F"
Gd       0.00000000       0.00000000       0.00000000       0.00000000       0.00000000       0.88872355
Gd       0.00000000       0.00000000       4.06000000       0.00000000       0.00000000      -0.88872355
2
Properties=species:S:1:pos:R:3:forces:R:3 energy=-75.0417041250169 pbc="F F F"
Gd       0.00000000       0.00000000       0.00000000       0.00000000       0.00000000       0.80847663
Gd       0.00000000       0.00000000       4.11878788       0.00000000       0.00000000      -0.80847663
2
Properties=species:S:1:pos:R:3:forces:R:3 energy=-74.99578701332204 pbc="F F F"
Gd       0.00000000       0.00000000       0.00000000       0.00000000       0.00000000       0.75807798
Gd       0.00000000       0.00000000       4.17757576       0.00000000       0.00000000      -0.75807798
2
Properties=species:S:1:pos:R:3:forces:R:3 energy=-74.95207536179785 pbc="F F F"
Gd       0.00000000       0.00000000       0.00000000       0.00000000       0.00000000       0.73276687
Gd       0.00000000       0.00000000       4.23636364       0.00000000       0.00000000      -0.73276687
2
Properties=species:S:1:pos:R:3:forces:R:3 energy=-74.90925655186933 pbc="F F F"
Gd       0.00000000       0.00000000       0.00000000       0.00000000       0.00000000       0.72672611
Gd       0.00000000       0.00000000       4.29515152       0.00000000       0.00000000      -0.72672611
2
Properties=species:S:1:pos:R:3:forces:R:3 energy=-74.86637655125615 pbc="F F F"
Gd       0.00000000       0.00000000       0.00000000       0.00000000       0.00000000       0.73370057
Gd       0.00000000       0.00000000       4.35393939       0.00000000       0.00000000      -0.73370057
2
Properties=species:S:1:pos:R:3:forces:R:3 energy=-74.82286278790112 pbc="F F F"
Gd       0.00000000       0.00000000       0.00000000       0.00000000       0.00000000       0.74725139
Gd       0.00000000       0.00000000       4.41272727       0.00000000       0.00000000      -0.74725139
2
Properties=species:S:1:pos:R:3:forces:R:3 energy=-74.7785165379986 pbc="F F F"
Gd       0.00000000       0.00000000       0.00000000       0.00000000       0.00000000       0.76092803
Gd       0.00000000       0.00000000       4.47151515       0.00000000       0.00000000      -0.76092803
2
Properties=species:S:1:pos:R:3:forces:R:3 energy=-74.73351292282673 pbc="F F F"
Gd       0.00000000       0.00000000       0.00000000       0.00000000       0.00000000       0.76850051
Gd       0.00000000       0.00000000       4.53030303       0.00000000       0.00000000      -0.76850051
2
Properties=species:S:1:pos:R:3:forces:R:3 energy=-74.68838564837445 pbc="F F F"
Gd       0.00000000       0.00000000       0.00000000       0.00000000       0.00000000       0.76447064
Gd       0.00000000       0.00000000       4.58909091       0.00000000       0.00000000      -0.76447064
2
Properties=species:S:1:pos:R:3:forces:R:3 energy=-74.64393546527837 pbc="F F F"
Gd       0.00000000       0.00000000       0.00000000       0.00000000       0.00000000       0.74495500
Gd       0.00000000       0.00000000       4.64787879       0.00000000       0.00000000      -0.74495500
2
Properties=species:S:1:pos:R:3:forces:R:3 energy=-74.6011309819422 pbc="F F F"
Gd       0.00000000       0.00000000       0.00000000       0.00000000       0.00000000       0.70861173
Gd       0.00000000       0.00000000       4.70666667       0.00000000       0.00000000      -0.70861173
2
Properties=species:S:1:pos:R:3:forces:R:3 energy=-74.5609179391769 pbc="F F F"
Gd       0.00000000       0.00000000       0.00000000       0.00000000       0.00000000       0.65735471
Gd       0.00000000       0.00000000       4.76545455       0.00000000       0.00000000      -0.65735471
2
Properties=species:S:1:pos:R:3:forces:R:3 energy=-74.52403609839628 pbc="F F F"
Gd       0.00000000       0.00000000       0.00000000       0.00000000       0.00000000       0.59617406
Gd       0.00000000       0.00000000       4.82424242       0.00000000       0.00000000      -0.59617406
2
Properties=species:S:1:pos:R:3:forces:R:3 energy=-74.49088193152234 pbc="F F F"
Gd       0.00000000       0.00000000       0.00000000       0.00000000       0.00000000       0.53205812
Gd       0.00000000       0.00000000       4.88303030       0.00000000       0.00000000      -0.53205812
2
Properties=species:S:1:pos:R:3:forces:R:3 energy=-74.46139417531566 pbc="F F F"
Gd       0.00000000       0.00000000       0.00000000       0.00000000       0.00000000       0.47209752
Gd       0.00000000       0.00000000       4.94181818       0.00000000       0.00000000      -0.47209752
2
Properties=species:S:1:pos:R:3:forces:R:3 energy=-74.43518352791452 pbc="F F F"
Gd       0.00000000       0.00000000       0.00000000       0.00000000       0.00000000       0.42168006
Gd       0.00000000       0.00000000       5.00060606       0.00000000       0.00000000      -0.42168006
2
Properties=species:S:1:pos:R:3:forces:R:3 energy=-74.4115784505447 pbc="F F F"
Gd       0.00000000       0.00000000       0.00000000       0.00000000       0.00000000       0.38319325
Gd       0.00000000       0.00000000       5.05939394       0.00000000       0.00000000      -0.38319325
2
Properties=species:S:1:pos:R:3:forces:R:3 energy=-74.38990743452631 pbc="F F F"
Gd       0.00000000       0.00000000       0.00000000       0.00000000       0.00000000       0.35590619
Gd       0.00000000       0.00000000       5.11818182       0.00000000       0.00000000      -0.35590619
2
Properties=species:S:1:pos:R:3:forces:R:3 energy=-74.36957531897774 pbc="F F F"
Gd       0.00000000       0.00000000       0.00000000       0.00000000       0.00000000       0.33682537
Gd       0.00000000       0.00000000       5.17696970       0.00000000       0.00000000      -0.33682537
2
Properties=species:S:1:pos:R:3:forces:R:3 energy=-74.35021587237063 pbc="F F F"
Gd       0.00000000       0.00000000       0.00000000       0.00000000       0.00000000       0.32209301
Gd       0.00000000       0.00000000       5.23575758       0.00000000       0.00000000      -0.32209301
2
Properties=species:S:1:pos:R:3:forces:R:3 energy=-74.33169179569774 pbc="F F F"
Gd       0.00000000       0.00000000       0.00000000       0.00000000       0.00000000       0.30827245
Gd       0.00000000       0.00000000       5.29454545       0.00000000       0.00000000      -0.30827245
2
Properties=species:S:1:pos:R:3:forces:R:3 energy=-74.31399555776702 pbc="F F F"
Gd       0.00000000       0.00000000       0.00000000       0.00000000       0.00000000       0.29357600
Gd       0.00000000       0.00000000       5.35333333       0.00000000       0.00000000      -0.29357600
2
Properties=species:S:1:pos:R:3:forces:R:3 energy=-74.29717308541721 pbc="F F F"
Gd       0.00000000       0.00000000       0.00000000       0.00000000       0.00000000       0.27875713
Gd       0.00000000       0.00000000       5.41212121       0.00000000       0.00000000      -0.27875713
2
Properties=species:S:1:pos:R:3:forces:R:3 energy=-74.28121696466569 pbc="F F F"
Gd       0.00000000       0.00000000       0.00000000       0.00000000       0.00000000       0.26387140
Gd       0.00000000       0.00000000       5.47090909       0.00000000       0.00000000      -0.26387140
2
Properties=species:S:1:pos:R:3:forces:R:3 energy=-74.26625717082 pbc="F F F"
Gd       0.00000000       0.00000000       0.00000000       0.00000000       0.00000000       0.24318014
Gd       0.00000000       0.00000000       5.52969697       0.00000000       0.00000000      -0.24318014
2
Properties=species:S:1:pos:R:3:forces:R:3 energy=-74.25288151730342 pbc="F F F"
Gd       0.00000000       0.00000000       0.00000000       0.00000000       0.00000000       0.20967396
Gd       0.00000000       0.00000000       5.58848485       0.00000000       0.00000000      -0.20967396
2
Properties=species:S:1:pos:R:3:forces:R:3 energy=-74.24179995279205 pbc="F F F"
Gd       0.00000000       0.00000000       0.00000000       0.00000000       0.00000000       0.16709013
Gd       0.00000000       0.00000000       5.64727273       0.00000000       0.00000000      -0.16709013
2
Properties=species:S:1:pos:R:3:forces:R:3 energy=-74.2330816075065 pbc="F F F"
Gd       0.00000000       0.00000000       0.00000000       0.00000000       0.00000000       0.13247769
Gd       0.00000000       0.00000000       5.70606061       0.00000000       0.00000000      -0.13247769
2
Properties=species:S:1:pos:R:3:forces:R:3 energy=-74.22579624809897 pbc="F F F"
Gd       0.00000000       0.00000000       0.00000000       0.00000000       0.00000000       0.11796547
Gd       0.00000000       0.00000000       5.76484848       0.00000000       0.00000000      -0.11796547
2
Properties=species:S:1:pos:R:3:forces:R:3 energy=-74.21912812807297 pbc="F F F"
Gd       0.00000000       0.00000000       0.00000000       0.00000000       0.00000000       0.10645376
Gd       0.00000000       0.00000000       5.82363636       0.00000000       0.00000000      -0.10645376
2
Properties=species:S:1:pos:R:3:forces:R:3 energy=-74.21381795760503 pbc="F F F"
Gd       0.00000000       0.00000000       0.00000000       0.00000000       0.00000000       0.07047419
Gd       0.00000000       0.00000000       5.88242424       0.00000000       0.00000000      -0.07047419
2
Properties=species:S:1:pos:R:3:forces:R:3 energy=-74.21102612217564 pbc="F F F"
Gd       0.00000000       0.00000000       0.00000000       0.00000000       0.00000000       0.02579108
Gd       0.00000000       0.00000000       5.94121212       0.00000000       0.00000000      -0.02579108
2
Properties=species:S:1:pos:R:3:forces:R:3 energy=-74.21025747141758 pbc="F F F"
Gd       0.00000000       0.00000000       0.00000000       0.00000000       0.00000000       0.00676438
Gd       0.00000000       0.00000000       6.00000000       0.00000000       0.00000000      -0.00676438
