2
Properties=species:S:1:pos:R:3:forces:R:3 energy=29989.98917945923 pbc="F F F"
Ge       0.00000000       0.00000000       0.00000000       0.00000000       0.00000000 -103995.72656250
Ge       0.00000000       0.00000000       0.18000000       0.00000000       0.00000000  103995.72656250
2
Properties=species:S:1:pos:R:3:forces:R:3 energy=24243.23917945923 pbc="F F F"
Ge       0.00000000       0.00000000       0.00000000       0.00000000       0.00000000 -105023.27343750
Ge       0.00000000       0.00000000       0.23878788       0.00000000       0.00000000  105023.27343750
2
Properties=species:S:1:pos:R:3:forces:R:3 energy=16739.45011695923 pbc="F F F"
Ge       0.00000000       0.00000000       0.00000000       0.00000000       0.00000000 -152778.21875000
Ge       0.00000000       0.00000000       0.29757576       0.00000000       0.00000000  152778.21875000
2
Properties=species:S:1:pos:R:3:forces:R:3 energy=6670.471113053771 pbc="F F F"
Ge       0.00000000       0.00000000       0.00000000       0.00000000       0.00000000 -180103.26562500
Ge       0.00000000       0.00000000       0.35636364       0.00000000       0.00000000  180103.26562500
2
Properties=species:S:1:pos:R:3:forces:R:3 energy=-2693.034746320437 pbc="F F F"
Ge       0.00000000       0.00000000       0.00000000       0.00000000       0.00000000 -121397.52343750
Ge       0.00000000       0.00000000       0.41515152       0.00000000       0.00000000  121397.52343750
2
Properties=species:S:1:pos:R:3:forces:R:3 energy=-6206.420488506353 pbc="F F F"
Ge       0.00000000       0.00000000       0.00000000       0.00000000       0.00000000    3227.45605469
Ge       0.00000000       0.00000000       0.47393939       0.00000000       0.00000000   -3227.45605469
2
Properties=species:S:1:pos:R:3:forces:R:3 energy=-3477.6587697547693 pbc="F F F"
Ge       0.00000000       0.00000000       0.00000000       0.00000000       0.00000000   49062.05078125
Ge       0.00000000       0.00000000       0.53272727       0.00000000       0.00000000  -49062.05078125
2
Properties=species:S:1:pos:R:3:forces:R:3 energy=-908.5209523672049 pbc="F F F"
Ge       0.00000000       0.00000000       0.00000000       0.00000000       0.00000000   16292.00781250
Ge       0.00000000       0.00000000       0.59151515       0.00000000       0.00000000  -16292.00781250
2
Properties=species:S:1:pos:R:3:forces:R:3 energy=-512.3731862460041 pbc="F F F"
Ge       0.00000000       0.00000000       0.00000000       0.00000000       0.00000000   -1353.33300781
Ge       0.00000000       0.00000000       0.65030303       0.00000000       0.00000000    1353.33300781
2
Properties=species:S:1:pos:R:3:forces:R:3 energy=-503.0354481978074 pbc="F F F"
Ge       0.00000000       0.00000000       0.00000000       0.00000000       0.00000000    1973.37292480
Ge       0.00000000       0.00000000       0.70909091       0.00000000       0.00000000   -1973.37292480
2
Properties=species:S:1:pos:R:3:forces:R:3 energy=-376.16768084560806 pbc="F F F"
Ge       0.00000000       0.00000000       0.00000000       0.00000000       0.00000000    1978.46350098
Ge       0.00000000       0.00000000       0.76787879       0.00000000       0.00000000   -1978.46350098
2
Properties=species:S:1:pos:R:3:forces:R:3 energy=-274.7864247167499 pbc="F F F"
Ge       0.00000000       0.00000000       0.00000000       0.00000000       0.00000000    1477.00866699
Ge       0.00000000       0.00000000       0.82666667       0.00000000       0.00000000   -1477.00866699
2
Properties=species:S:1:pos:R:3:forces:R:3 energy=-198.06976513283755 pbc="F F F"
Ge       0.00000000       0.00000000       0.00000000       0.00000000       0.00000000    1213.08215332
Ge       0.00000000       0.00000000       0.88545455       0.00000000       0.00000000   -1213.08215332
2
Properties=species:S:1:pos:R:3:forces:R:3 energy=-133.4984455012823 pbc="F F F"
Ge       0.00000000       0.00000000       0.00000000       0.00000000       0.00000000    1114.51208496
Ge       0.00000000       0.00000000       0.94424242       0.00000000       0.00000000   -1114.51208496
2
Properties=species:S:1:pos:R:3:forces:R:3 energy=-70.50432006379538 pbc="F F F"
Ge       0.00000000       0.00000000       0.00000000       0.00000000       0.00000000     950.32196045
Ge       0.00000000       0.00000000       1.00303030       0.00000000       0.00000000    -950.32196045
2
Properties=species:S:1:pos:R:3:forces:R:3 energy=-29.68427449756931 pbc="F F F"
Ge       0.00000000       0.00000000       0.00000000       0.00000000       0.00000000     491.73452759
Ge       0.00000000       0.00000000       1.06181818       0.00000000       0.00000000    -491.73452759
2
Properties=species:S:1:pos:R:3:forces:R:3 energy=-16.944162066168925 pbc="F F F"
Ge       0.00000000       0.00000000       0.00000000       0.00000000       0.00000000     -10.74340057
Ge       0.00000000       0.00000000       1.12060606       0.00000000       0.00000000      10.74340057
2
Properties=species:S:1:pos:R:3:forces:R:3 energy=-14.327306280104281 pbc="F F F"
Ge       0.00000000       0.00000000       0.00000000       0.00000000       0.00000000     101.21778107
Ge       0.00000000       0.00000000       1.17939394       0.00000000       0.00000000    -101.21778107
2
Properties=species:S:1:pos:R:3:forces:R:3 energy=-9.16442898345158 pbc="F F F"
Ge       0.00000000       0.00000000       0.00000000       0.00000000       0.00000000      57.78654099
Ge       0.00000000       0.00000000       1.23818182       0.00000000       0.00000000     -57.78654099
2
Properties=species:S:1:pos:R:3:forces:R:3 energy=-7.6430311227575345 pbc="F F F"
Ge       0.00000000       0.00000000       0.00000000       0.00000000       0.00000000       2.83590579
Ge       0.00000000       0.00000000       1.29696970       0.00000000       0.00000000      -2.83590579
2
Properties=species:S:1:pos:R:3:forces:R:3 energy=-8.299541134513078 pbc="F F F"
Ge       0.00000000       0.00000000       0.00000000       0.00000000       0.00000000     -23.01327515
Ge       0.00000000       0.00000000       1.35575758       0.00000000       0.00000000      23.01327515
2
Properties=species:S:1:pos:R:3:forces:R:3 energy=-10.10801048157182 pbc="F F F"
Ge       0.00000000       0.00000000       0.00000000       0.00000000       0.00000000     -36.66431046
Ge       0.00000000       0.00000000       1.41454545       0.00000000       0.00000000      36.66431046
2
Properties=species:S:1:pos:R:3:forces:R:3 energy=-12.431453369286062 pbc="F F F"
Ge       0.00000000       0.00000000       0.00000000       0.00000000       0.00000000     -41.12339020
Ge       0.00000000       0.00000000       1.47333333       0.00000000       0.00000000      41.12339020
2
Properties=species:S:1:pos:R:3:forces:R:3 energy=-14.815893147484315 pbc="F F F"
Ge       0.00000000       0.00000000       0.00000000       0.00000000       0.00000000     -39.15103912
Ge       0.00000000       0.00000000       1.53212121       0.00000000       0.00000000      39.15103912
2
Properties=species:S:1:pos:R:3:forces:R:3 energy=-16.97659506645577 pbc="F F F"
Ge       0.00000000       0.00000000       0.00000000       0.00000000       0.00000000     -34.18503189
Ge       0.00000000       0.00000000       1.59090909       0.00000000       0.00000000      34.18503189
2
Properties=species:S:1:pos:R:3:forces:R:3 energy=-18.83140864869589 pbc="F F F"
Ge       0.00000000       0.00000000       0.00000000       0.00000000       0.00000000     -28.89930725
Ge       0.00000000       0.00000000       1.64969697       0.00000000       0.00000000      28.89930725
2
Properties=species:S:1:pos:R:3:forces:R:3 energy=-20.363344163291195 pbc="F F F"
Ge       0.00000000       0.00000000       0.00000000       0.00000000       0.00000000     -23.05536461
Ge       0.00000000       0.00000000       1.70848485       0.00000000       0.00000000      23.05536461
2
Properties=species:S:1:pos:R:3:forces:R:3 energy=-21.52491812801395 pbc="F F F"
Ge       0.00000000       0.00000000       0.00000000       0.00000000       0.00000000     -16.40345955
Ge       0.00000000       0.00000000       1.76727273       0.00000000       0.00000000      16.40345955
2
Properties=species:S:1:pos:R:3:forces:R:3 energy=-22.302567367729296 pbc="F F F"
Ge       0.00000000       0.00000000       0.00000000       0.00000000       0.00000000     -10.27677727
Ge       0.00000000       0.00000000       1.82606061       0.00000000       0.00000000      10.27677727
2
Properties=species:S:1:pos:R:3:forces:R:3 energy=-22.764450956528425 pbc="F F F"
Ge       0.00000000       0.00000000       0.00000000       0.00000000       0.00000000      -5.66780901
Ge       0.00000000       0.00000000       1.88484848       0.00000000       0.00000000       5.66780901
2
Properties=species:S:1:pos:R:3:forces:R:3 energy=-22.98551813913882 pbc="F F F"
Ge       0.00000000       0.00000000       0.00000000       0.00000000       0.00000000      -1.92666161
Ge       0.00000000       0.00000000       1.94363636       0.00000000       0.00000000       1.92666161
2
Properties=species:S:1:pos:R:3:forces:R:3 energy=-23.002885903323943 pbc="F F F"
Ge       0.00000000       0.00000000       0.00000000       0.00000000       0.00000000       1.14140224
Ge       0.00000000       0.00000000       2.00242424       0.00000000       0.00000000      -1.14140224
2
Properties=species:S:1:pos:R:3:forces:R:3 energy=-22.88986702511428 pbc="F F F"
Ge       0.00000000       0.00000000       0.00000000       0.00000000       0.00000000       2.26543379
Ge       0.00000000       0.00000000       2.06121212       0.00000000       0.00000000      -2.26543379
2
Properties=species:S:1:pos:R:3:forces:R:3 energy=-22.789405878461196 pbc="F F F"
Ge       0.00000000       0.00000000       0.00000000       0.00000000       0.00000000       0.78184348
Ge       0.00000000       0.00000000       2.12000000       0.00000000       0.00000000      -0.78184348
2
Properties=species:S:1:pos:R:3:forces:R:3 energy=-22.818201773981528 pbc="F F F"
Ge       0.00000000       0.00000000       0.00000000       0.00000000       0.00000000      -1.69916463
Ge       0.00000000       0.00000000       2.17878788       0.00000000       0.00000000       1.69916463
2
Properties=species:S:1:pos:R:3:forces:R:3 energy=-22.95978491937378 pbc="F F F"
Ge       0.00000000       0.00000000       0.00000000       0.00000000       0.00000000      -2.76752210
Ge       0.00000000       0.00000000       2.23757576       0.00000000       0.00000000       2.76752210
2
Properties=species:S:1:pos:R:3:forces:R:3 energy=-23.10735930816703 pbc="F F F"
Ge       0.00000000       0.00000000       0.00000000       0.00000000       0.00000000      -2.04925489
Ge       0.00000000       0.00000000       2.29636364       0.00000000       0.00000000       2.04925489
2
Properties=species:S:1:pos:R:3:forces:R:3 energy=-23.191061063267746 pbc="F F F"
Ge       0.00000000       0.00000000       0.00000000       0.00000000       0.00000000      -0.81194067
Ge       0.00000000       0.00000000       2.35515152       0.00000000       0.00000000       0.81194067
2
Properties=species:S:1:pos:R:3:forces:R:3 energy=-23.209618554929747 pbc="F F F"
Ge       0.00000000       0.00000000       0.00000000       0.00000000       0.00000000       0.10692565
Ge       0.00000000       0.00000000       2.41393939       0.00000000       0.00000000      -0.10692565
2
Properties=species:S:1:pos:R:3:forces:R:3 energy=-23.18603335325223 pbc="F F F"
Ge       0.00000000       0.00000000       0.00000000       0.00000000       0.00000000       0.64839399
Ge       0.00000000       0.00000000       2.47272727       0.00000000       0.00000000      -0.64839399
2
Properties=species:S:1:pos:R:3:forces:R:3 energy=-23.13646018210454 pbc="F F F"
Ge       0.00000000       0.00000000       0.00000000       0.00000000       0.00000000       1.03206575
Ge       0.00000000       0.00000000       2.53151515       0.00000000       0.00000000      -1.03206575
2
Properties=species:S:1:pos:R:3:forces:R:3 energy=-23.06358145521843 pbc="F F F"
Ge       0.00000000       0.00000000       0.00000000       0.00000000       0.00000000       1.46674144
Ge       0.00000000       0.00000000       2.59030303       0.00000000       0.00000000      -1.46674144
2
Properties=species:S:1:pos:R:3:forces:R:3 energy=-22.961809944811126 pbc="F F F"
Ge       0.00000000       0.00000000       0.00000000       0.00000000       0.00000000       2.00602078
Ge       0.00000000       0.00000000       2.64909091       0.00000000       0.00000000      -2.00602078
2
Properties=species:S:1:pos:R:3:forces:R:3 energy=-22.82845841126436 pbc="F F F"
Ge       0.00000000       0.00000000       0.00000000       0.00000000       0.00000000       2.50568604
Ge       0.00000000       0.00000000       2.70787879       0.00000000       0.00000000      -2.50568604
2
Properties=species:S:1:pos:R:3:forces:R:3 energy=-22.671992218829878 pbc="F F F"
Ge       0.00000000       0.00000000       0.00000000       0.00000000       0.00000000       2.76623869
Ge       0.00000000       0.00000000       2.76666667       0.00000000       0.00000000      -2.76623869
2
Properties=species:S:1:pos:R:3:forces:R:3 energy=-22.509259186556143 pbc="F F F"
Ge       0.00000000       0.00000000       0.00000000       0.00000000       0.00000000       2.72496819
Ge       0.00000000       0.00000000       2.82545455       0.00000000       0.00000000      -2.72496819
2
Properties=species:S:1:pos:R:3:forces:R:3 energy=-22.355310065968624 pbc="F F F"
Ge       0.00000000       0.00000000       0.00000000       0.00000000       0.00000000       2.49670696
Ge       0.00000000       0.00000000       2.88424242       0.00000000       0.00000000      -2.49670696
2
Properties=species:S:1:pos:R:3:forces:R:3 energy=-22.21578366693453 pbc="F F F"
Ge       0.00000000       0.00000000       0.00000000       0.00000000       0.00000000       2.26174426
Ge       0.00000000       0.00000000       2.94303030       0.00000000       0.00000000      -2.26174426
2
Properties=species:S:1:pos:R:3:forces:R:3 energy=-22.087263732832113 pbc="F F F"
Ge       0.00000000       0.00000000       0.00000000       0.00000000       0.00000000       2.13052726
Ge       0.00000000       0.00000000       3.00181818       0.00000000       0.00000000      -2.13052726
2
Properties=species:S:1:pos:R:3:forces:R:3 energy=-21.963334749434793 pbc="F F F"
Ge       0.00000000       0.00000000       0.00000000       0.00000000       0.00000000       2.09666014
Ge       0.00000000       0.00000000       3.06060606       0.00000000       0.00000000      -2.09666014
2
Properties=species:S:1:pos:R:3:forces:R:3 energy=-21.840248874089625 pbc="F F F"
Ge       0.00000000       0.00000000       0.00000000       0.00000000       0.00000000       2.08887744
Ge       0.00000000       0.00000000       3.11939394       0.00000000       0.00000000      -2.08887744
2
Properties=species:S:1:pos:R:3:forces:R:3 energy=-21.71844679316777 pbc="F F F"
Ge       0.00000000       0.00000000       0.00000000       0.00000000       0.00000000       2.04637718
Ge       0.00000000       0.00000000       3.17818182       0.00000000       0.00000000      -2.04637718
2
Properties=species:S:1:pos:R:3:forces:R:3 energy=-21.60067122820777 pbc="F F F"
Ge       0.00000000       0.00000000       0.00000000       0.00000000       0.00000000       1.95273900
Ge       0.00000000       0.00000000       3.23696970       0.00000000       0.00000000      -1.95273900
2
Properties=species:S:1:pos:R:3:forces:R:3 energy=-21.48951593970877 pbc="F F F"
Ge       0.00000000       0.00000000       0.00000000       0.00000000       0.00000000       1.82547557
Ge       0.00000000       0.00000000       3.29575758       0.00000000       0.00000000      -1.82547557
2
Properties=species:S:1:pos:R:3:forces:R:3 energy=-21.38616727934631 pbc="F F F"
Ge       0.00000000       0.00000000       0.00000000       0.00000000       0.00000000       1.69133902
Ge       0.00000000       0.00000000       3.35454545       0.00000000       0.00000000      -1.69133902
2
Properties=species:S:1:pos:R:3:forces:R:3 energy=-21.29039587442457 pbc="F F F"
Ge       0.00000000       0.00000000       0.00000000       0.00000000       0.00000000       1.57009006
Ge       0.00000000       0.00000000       3.41333333       0.00000000       0.00000000      -1.57009006
2
Properties=species:S:1:pos:R:3:forces:R:3 energy=-21.201131686201734 pbc="F F F"
Ge       0.00000000       0.00000000       0.00000000       0.00000000       0.00000000       1.47058570
Ge       0.00000000       0.00000000       3.47212121       0.00000000       0.00000000      -1.47058570
2
Properties=species:S:1:pos:R:3:forces:R:3 energy=-21.117048248578495 pbc="F F F"
Ge       0.00000000       0.00000000       0.00000000       0.00000000       0.00000000       1.39346528
Ge       0.00000000       0.00000000       3.53090909       0.00000000       0.00000000      -1.39346528
2
Properties=species:S:1:pos:R:3:forces:R:3 energy=-21.036927332026696 pbc="F F F"
Ge       0.00000000       0.00000000       0.00000000       0.00000000       0.00000000       1.33493483
Ge       0.00000000       0.00000000       3.58969697       0.00000000       0.00000000      -1.33493483
2
Properties=species:S:1:pos:R:3:forces:R:3 energy=-20.95983649569871 pbc="F F F"
Ge       0.00000000       0.00000000       0.00000000       0.00000000       0.00000000       1.28945589
Ge       0.00000000       0.00000000       3.64848485       0.00000000       0.00000000      -1.28945589
2
Properties=species:S:1:pos:R:3:forces:R:3 energy=-20.885176919238937 pbc="F F F"
Ge       0.00000000       0.00000000       0.00000000       0.00000000       0.00000000       1.25124574
Ge       0.00000000       0.00000000       3.70727273       0.00000000       0.00000000      -1.25124574
2
Properties=species:S:1:pos:R:3:forces:R:3 energy=-20.812679641939532 pbc="F F F"
Ge       0.00000000       0.00000000       0.00000000       0.00000000       0.00000000       1.21511948
Ge       0.00000000       0.00000000       3.76606061       0.00000000       0.00000000      -1.21511948
2
Properties=species:S:1:pos:R:3:forces:R:3 energy=-20.742348381879186 pbc="F F F"
Ge       0.00000000       0.00000000       0.00000000       0.00000000       0.00000000       1.17697537
Ge       0.00000000       0.00000000       3.82484848       0.00000000       0.00000000      -1.17697537
2
Properties=species:S:1:pos:R:3:forces:R:3 energy=-20.674390911762078 pbc="F F F"
Ge       0.00000000       0.00000000       0.00000000       0.00000000       0.00000000       1.13402236
Ge       0.00000000       0.00000000       3.88363636       0.00000000       0.00000000      -1.13402236
2
Properties=species:S:1:pos:R:3:forces:R:3 energy=-20.609138958986808 pbc="F F F"
Ge       0.00000000       0.00000000       0.00000000       0.00000000       0.00000000       1.08478820
Ge       0.00000000       0.00000000       3.94242424       0.00000000       0.00000000      -1.08478820
2
Properties=species:S:1:pos:R:3:forces:R:3 energy=-20.54697765829761 pbc="F F F"
Ge       0.00000000       0.00000000       0.00000000       0.00000000       0.00000000       1.02895093
Ge       0.00000000       0.00000000       4.00121212       0.00000000       0.00000000      -1.02895093
2
Properties=species:S:1:pos:R:3:forces:R:3 energy=-20.488278792998283 pbc="F F F"
Ge       0.00000000       0.00000000       0.00000000       0.00000000       0.00000000       0.96707082
Ge       0.00000000       0.00000000       4.06000000       0.00000000       0.00000000      -0.96707082
2
Properties=species:S:1:pos:R:3:forces:R:3 energy=-20.43337029321319 pbc="F F F"
Ge       0.00000000       0.00000000       0.00000000       0.00000000       0.00000000       0.90032184
Ge       0.00000000       0.00000000       4.11878788       0.00000000       0.00000000      -0.90032184
2
Properties=species:S:1:pos:R:3:forces:R:3 energy=-20.3824885561312 pbc="F F F"
Ge       0.00000000       0.00000000       0.00000000       0.00000000       0.00000000       0.83023322
Ge       0.00000000       0.00000000       4.17757576       0.00000000       0.00000000      -0.83023322
2
Properties=species:S:1:pos:R:3:forces:R:3 energy=-20.335784176763102 pbc="F F F"
Ge       0.00000000       0.00000000       0.00000000       0.00000000       0.00000000       0.75851810
Ge       0.00000000       0.00000000       4.23636364       0.00000000       0.00000000      -0.75851810
2
Properties=species:S:1:pos:R:3:forces:R:3 energy=-20.293300976610126 pbc="F F F"
Ge       0.00000000       0.00000000       0.00000000       0.00000000       0.00000000       0.68693686
Ge       0.00000000       0.00000000       4.29515152       0.00000000       0.00000000      -0.68693686
2
Properties=species:S:1:pos:R:3:forces:R:3 energy=-20.25498363147454 pbc="F F F"
Ge       0.00000000       0.00000000       0.00000000       0.00000000       0.00000000       0.61716139
Ge       0.00000000       0.00000000       4.35393939       0.00000000       0.00000000      -0.61716139
2
Properties=species:S:1:pos:R:3:forces:R:3 energy=-20.220675768862765 pbc="F F F"
Ge       0.00000000       0.00000000       0.00000000       0.00000000       0.00000000       0.55065298
Ge       0.00000000       0.00000000       4.41272727       0.00000000       0.00000000      -0.55065298
2
Properties=species:S:1:pos:R:3:forces:R:3 energy=-20.190152401623635 pbc="F F F"
Ge       0.00000000       0.00000000       0.00000000       0.00000000       0.00000000       0.48854584
Ge       0.00000000       0.00000000       4.47151515       0.00000000       0.00000000      -0.48854584
2
Properties=species:S:1:pos:R:3:forces:R:3 energy=-20.163133281764704 pbc="F F F"
Ge       0.00000000       0.00000000       0.00000000       0.00000000       0.00000000       0.43152592
Ge       0.00000000       0.00000000       4.53030303       0.00000000       0.00000000      -0.43152592
2
Properties=species:S:1:pos:R:3:forces:R:3 energy=-20.139311506721953 pbc="F F F"
Ge       0.00000000       0.00000000       0.00000000       0.00000000       0.00000000       0.37976339
Ge       0.00000000       0.00000000       4.58909091       0.00000000       0.00000000      -0.37976339
2
Properties=species:S:1:pos:R:3:forces:R:3 energy=-20.118385964085434 pbc="F F F"
Ge       0.00000000       0.00000000       0.00000000       0.00000000       0.00000000       0.33293155
Ge       0.00000000       0.00000000       4.64787879       0.00000000       0.00000000      -0.33293155
2
Properties=species:S:1:pos:R:3:forces:R:3 energy=-20.10008418731269 pbc="F F F"
Ge       0.00000000       0.00000000       0.00000000       0.00000000       0.00000000       0.29028809
Ge       0.00000000       0.00000000       4.70666667       0.00000000       0.00000000      -0.29028809
2
Properties=species:S:1:pos:R:3:forces:R:3 energy=-20.084191007139943 pbc="F F F"
Ge       0.00000000       0.00000000       0.00000000       0.00000000       0.00000000       0.25089493
Ge       0.00000000       0.00000000       4.76545455       0.00000000       0.00000000      -0.25089493
2
Properties=species:S:1:pos:R:3:forces:R:3 energy=-20.07053897840896 pbc="F F F"
Ge       0.00000000       0.00000000       0.00000000       0.00000000       0.00000000       0.21385902
Ge       0.00000000       0.00000000       4.82424242       0.00000000       0.00000000      -0.21385902
2
Properties=species:S:1:pos:R:3:forces:R:3 energy=-20.05901221931495 pbc="F F F"
Ge       0.00000000       0.00000000       0.00000000       0.00000000       0.00000000       0.17864057
Ge       0.00000000       0.00000000       4.88303030       0.00000000       0.00000000      -0.17864057
2
Properties=species:S:1:pos:R:3:forces:R:3 energy=-20.049502513877613 pbc="F F F"
Ge       0.00000000       0.00000000       0.00000000       0.00000000       0.00000000       0.14518537
Ge       0.00000000       0.00000000       4.94181818       0.00000000       0.00000000      -0.14518537
2
Properties=species:S:1:pos:R:3:forces:R:3 energy=-20.04189597238003 pbc="F F F"
Ge       0.00000000       0.00000000       0.00000000       0.00000000       0.00000000       0.11398944
Ge       0.00000000       0.00000000       5.00060606       0.00000000       0.00000000      -0.11398944
2
Properties=species:S:1:pos:R:3:forces:R:3 energy=-20.036038695133506 pbc="F F F"
Ge       0.00000000       0.00000000       0.00000000       0.00000000       0.00000000       0.08591218
Ge       0.00000000       0.00000000       5.05939394       0.00000000       0.00000000      -0.08591218
2
Properties=species:S:1:pos:R:3:forces:R:3 energy=-20.031713864495092 pbc="F F F"
Ge       0.00000000       0.00000000       0.00000000       0.00000000       0.00000000       0.06201086
Ge       0.00000000       0.00000000       5.11818182       0.00000000       0.00000000      -0.06201086
2
Properties=species:S:1:pos:R:3:forces:R:3 energy=-20.02864555956483 pbc="F F F"
Ge       0.00000000       0.00000000       0.00000000       0.00000000       0.00000000       0.04336448
Ge       0.00000000       0.00000000       5.17696970       0.00000000       0.00000000      -0.04336448
2
Properties=species:S:1:pos:R:3:forces:R:3 energy=-20.026493030180102 pbc="F F F"
Ge       0.00000000       0.00000000       0.00000000       0.00000000       0.00000000       0.03092459
Ge       0.00000000       0.00000000       5.23575758       0.00000000       0.00000000      -0.03092459
2
Properties=species:S:1:pos:R:3:forces:R:3 energy=-20.024879292889903 pbc="F F F"
Ge       0.00000000       0.00000000       0.00000000       0.00000000       0.00000000       0.02501718
Ge       0.00000000       0.00000000       5.29454545       0.00000000       0.00000000      -0.02501718
2
Properties=species:S:1:pos:R:3:forces:R:3 energy=-20.023450250050963 pbc="F F F"
Ge       0.00000000       0.00000000       0.00000000       0.00000000       0.00000000       0.02420974
Ge       0.00000000       0.00000000       5.35333333       0.00000000       0.00000000      -0.02420974
2
Properties=species:S:1:pos:R:3:forces:R:3 energy=-20.022015830458738 pbc="F F F"
Ge       0.00000000       0.00000000       0.00000000       0.00000000       0.00000000       0.02424402
Ge       0.00000000       0.00000000       5.41212121       0.00000000       0.00000000      -0.02424402
2
Properties=species:S:1:pos:R:3:forces:R:3 energy=-20.020672046988633 pbc="F F F"
Ge       0.00000000       0.00000000       0.00000000       0.00000000       0.00000000       0.02095370
Ge       0.00000000       0.00000000       5.47090909       0.00000000       0.00000000      -0.02095370
2
Properties=species:S:1:pos:R:3:forces:R:3 energy=-20.019530147546448 pbc="F F F"
Ge       0.00000000       0.00000000       0.00000000       0.00000000       0.00000000       0.01900404
Ge       0.00000000       0.00000000       5.52969697       0.00000000       0.00000000      -0.01900404
2
Properties=species:S:1:pos:R:3:forces:R:3 energy=-20.01824359023157 pbc="F F F"
Ge       0.00000000       0.00000000       0.00000000       0.00000000       0.00000000       0.02618937
Ge       0.00000000       0.00000000       5.58848485       0.00000000       0.00000000      -0.02618937
2
Properties=species:S:1:pos:R:3:forces:R:3 energy=-20.016397125035063 pbc="F F F"
Ge       0.00000000       0.00000000       0.00000000       0.00000000       0.00000000       0.03610679
Ge       0.00000000       0.00000000       5.64727273       0.00000000       0.00000000      -0.03610679
2
Properties=species:S:1:pos:R:3:forces:R:3 energy=-20.01413813178079 pbc="F F F"
Ge       0.00000000       0.00000000       0.00000000       0.00000000       0.00000000       0.03927569
Ge       0.00000000       0.00000000       5.70606061       0.00000000       0.00000000      -0.03927569
2
Properties=species:S:1:pos:R:3:forces:R:3 energy=-20.01190577582762 pbc="F F F"
Ge       0.00000000       0.00000000       0.00000000       0.00000000       0.00000000       0.03594994
Ge       0.00000000       0.00000000       5.76484848       0.00000000       0.00000000      -0.03594994
2
Properties=species:S:1:pos:R:3:forces:R:3 energy=-20.00995034037485 pbc="F F F"
Ge       0.00000000       0.00000000       0.00000000       0.00000000       0.00000000       0.03015821
Ge       0.00000000       0.00000000       5.82363636       0.00000000       0.00000000      -0.03015821
2
Properties=species:S:1:pos:R:3:forces:R:3 energy=-20.00845912097541 pbc="F F F"
Ge       0.00000000       0.00000000       0.00000000       0.00000000       0.00000000       0.01992524
Ge       0.00000000       0.00000000       5.88242424       0.00000000       0.00000000      -0.01992524
2
Properties=species:S:1:pos:R:3:forces:R:3 energy=-20.007640344915966 pbc="F F F"
Ge       0.00000000       0.00000000       0.00000000       0.00000000       0.00000000       0.00827620
Ge       0.00000000       0.00000000       5.94121212       0.00000000       0.00000000      -0.00827620
2
Properties=species:S:1:pos:R:3:forces:R:3 energy=-20.007349329300943 pbc="F F F"
Ge       0.00000000       0.00000000       0.00000000       0.00000000       0.00000000       0.00325047
Ge       0.00000000       0.00000000       6.00000000       0.00000000       0.00000000      -0.00325047
