2
Properties=species:S:1:pos:R:3:forces:R:3 energy=29990.25480445923 pbc="F F F"
Ge       0.00000000       0.00000000       0.00000000       0.00000000       0.00000000 -103995.80468750
Ge       0.00000000       0.00000000       0.18000000       0.00000000       0.00000000  103995.80468750
2
Properties=species:S:1:pos:R:3:forces:R:3 energy=24244.09074195923 pbc="F F F"
Ge       0.00000000       0.00000000       0.00000000       0.00000000       0.00000000 -105024.72656250
Ge       0.00000000       0.00000000       0.23878788       0.00000000       0.00000000  105024.72656250
2
Properties=species:S:1:pos:R:3:forces:R:3 energy=16739.56339820923 pbc="F F F"
Ge       0.00000000       0.00000000       0.00000000       0.00000000       0.00000000 -152778.73437500
Ge       0.00000000       0.00000000       0.29757576       0.00000000       0.00000000  152778.73437500
2
Properties=species:S:1:pos:R:3:forces:R:3 energy=6670.404706803771 pbc="F F F"
Ge       0.00000000       0.00000000       0.00000000       0.00000000       0.00000000 -180102.67187500
Ge       0.00000000       0.00000000       0.35636364       0.00000000       0.00000000  180102.67187500
2
Properties=species:S:1:pos:R:3:forces:R:3 energy=-2693.131426007937 pbc="F F F"
Ge       0.00000000       0.00000000       0.00000000       0.00000000       0.00000000 -121396.34375000
Ge       0.00000000       0.00000000       0.41515152       0.00000000       0.00000000  121396.34375000
2
Properties=species:S:1:pos:R:3:forces:R:3 energy=-6206.382890850103 pbc="F F F"
Ge       0.00000000       0.00000000       0.00000000       0.00000000       0.00000000    3226.84082031
Ge       0.00000000       0.00000000       0.47393939       0.00000000       0.00000000   -3226.84082031
2
Properties=species:S:1:pos:R:3:forces:R:3 energy=-3477.6365529578943 pbc="F F F"
Ge       0.00000000       0.00000000       0.00000000       0.00000000       0.00000000   49061.78125000
Ge       0.00000000       0.00000000       0.53272727       0.00000000       0.00000000  -49061.78125000
2
Properties=species:S:1:pos:R:3:forces:R:3 energy=-908.5235768789237 pbc="F F F"
Ge       0.00000000       0.00000000       0.00000000       0.00000000       0.00000000   16292.04101562
Ge       0.00000000       0.00000000       0.59151515       0.00000000       0.00000000  -16292.04101562
2
Properties=species:S:1:pos:R:3:forces:R:3 energy=-512.3741017733479 pbc="F F F"
Ge       0.00000000       0.00000000       0.00000000       0.00000000       0.00000000   -1353.31738281
Ge       0.00000000       0.00000000       0.65030303       0.00000000       0.00000000    1353.31738281
2
Properties=species:S:1:pos:R:3:forces:R:3 energy=-503.0363942427293 pbc="F F F"
Ge       0.00000000       0.00000000       0.00000000       0.00000000       0.00000000    1973.37585449
Ge       0.00000000       0.00000000       0.70909091       0.00000000       0.00000000   -1973.37585449
2
Properties=species:S:1:pos:R:3:forces:R:3 energy=-376.1666432479518 pbc="F F F"
Ge       0.00000000       0.00000000       0.00000000       0.00000000       0.00000000    1978.45336914
Ge       0.00000000       0.00000000       0.76787879       0.00000000       0.00000000   -1978.45336914
2
Properties=species:S:1:pos:R:3:forces:R:3 energy=-274.78737076167175 pbc="F F F"
Ge       0.00000000       0.00000000       0.00000000       0.00000000       0.00000000    1477.01232910
Ge       0.00000000       0.00000000       0.82666667       0.00000000       0.00000000   -1477.01232910
2
Properties=species:S:1:pos:R:3:forces:R:3 energy=-198.06988720315005 pbc="F F F"
Ge       0.00000000       0.00000000       0.00000000       0.00000000       0.00000000    1213.08056641
Ge       0.00000000       0.00000000       0.88545455       0.00000000       0.00000000   -1213.08056641
2
Properties=species:S:1:pos:R:3:forces:R:3 energy=-133.49792670245418 pbc="F F F"
Ge       0.00000000       0.00000000       0.00000000       0.00000000       0.00000000    1114.50927734
Ge       0.00000000       0.00000000       0.94424242       0.00000000       0.00000000   -1114.50927734
2
Properties=species:S:1:pos:R:3:forces:R:3 energy=-70.5040072586196 pbc="F F F"
Ge       0.00000000       0.00000000       0.00000000       0.00000000       0.00000000     950.31921387
Ge       0.00000000       0.00000000       1.00303030       0.00000000       0.00000000    -950.31921387
2
Properties=species:S:1:pos:R:3:forces:R:3 energy=-29.684346976817356 pbc="F F F"
Ge       0.00000000       0.00000000       0.00000000       0.00000000       0.00000000     491.73489380
Ge       0.00000000       0.00000000       1.06181818       0.00000000       0.00000000    -491.73489380
2
Properties=species:S:1:pos:R:3:forces:R:3 energy=-16.94401710767283 pbc="F F F"
Ge       0.00000000       0.00000000       0.00000000       0.00000000       0.00000000     -10.74696255
Ge       0.00000000       0.00000000       1.12060606       0.00000000       0.00000000      10.74696255
2
Properties=species:S:1:pos:R:3:forces:R:3 energy=-14.327268133131625 pbc="F F F"
Ge       0.00000000       0.00000000       0.00000000       0.00000000       0.00000000     101.21697235
Ge       0.00000000       0.00000000       1.17939394       0.00000000       0.00000000    -101.21697235
2
Properties=species:S:1:pos:R:3:forces:R:3 energy=-9.164415632011151 pbc="F F F"
Ge       0.00000000       0.00000000       0.00000000       0.00000000       0.00000000      57.78647995
Ge       0.00000000       0.00000000       1.23818182       0.00000000       0.00000000     -57.78647995
2
Properties=species:S:1:pos:R:3:forces:R:3 energy=-7.643013002945523 pbc="F F F"
Ge       0.00000000       0.00000000       0.00000000       0.00000000       0.00000000       2.83559966
Ge       0.00000000       0.00000000       1.29696970       0.00000000       0.00000000      -2.83559966
2
Properties=species:S:1:pos:R:3:forces:R:3 energy=-8.299540180838761 pbc="F F F"
Ge       0.00000000       0.00000000       0.00000000       0.00000000       0.00000000     -23.01328659
Ge       0.00000000       0.00000000       1.35575758       0.00000000       0.00000000      23.01328659
2
Properties=species:S:1:pos:R:3:forces:R:3 energy=-10.108007620548872 pbc="F F F"
Ge       0.00000000       0.00000000       0.00000000       0.00000000       0.00000000     -36.66432190
Ge       0.00000000       0.00000000       1.41454545       0.00000000       0.00000000      36.66432190
2
Properties=species:S:1:pos:R:3:forces:R:3 energy=-12.43144860091448 pbc="F F F"
Ge       0.00000000       0.00000000       0.00000000       0.00000000       0.00000000     -41.12339020
Ge       0.00000000       0.00000000       1.47333333       0.00000000       0.00000000      41.12339020
2
Properties=species:S:1:pos:R:3:forces:R:3 energy=-14.815888378320778 pbc="F F F"
Ge       0.00000000       0.00000000       0.00000000       0.00000000       0.00000000     -39.15108490
Ge       0.00000000       0.00000000       1.53212121       0.00000000       0.00000000      39.15108490
2
Properties=species:S:1:pos:R:3:forces:R:3 energy=-16.976591253342413 pbc="F F F"
Ge       0.00000000       0.00000000       0.00000000       0.00000000       0.00000000     -34.18503189
Ge       0.00000000       0.00000000       1.59090909       0.00000000       0.00000000      34.18503189
2
Properties=species:S:1:pos:R:3:forces:R:3 energy=-18.831410557628434 pbc="F F F"
Ge       0.00000000       0.00000000       0.00000000       0.00000000       0.00000000     -28.89929199
Ge       0.00000000       0.00000000       1.64969697       0.00000000       0.00000000      28.89929199
2
Properties=species:S:1:pos:R:3:forces:R:3 energy=-20.363346070639828 pbc="F F F"
Ge       0.00000000       0.00000000       0.00000000       0.00000000       0.00000000     -23.05535507
Ge       0.00000000       0.00000000       1.70848485       0.00000000       0.00000000      23.05535507
2
Properties=species:S:1:pos:R:3:forces:R:3 energy=-21.524916219873365 pbc="F F F"
Ge       0.00000000       0.00000000       0.00000000       0.00000000       0.00000000     -16.40343475
Ge       0.00000000       0.00000000       1.76727273       0.00000000       0.00000000      16.40343475
2
Properties=species:S:1:pos:R:3:forces:R:3 energy=-22.30256355303203 pbc="F F F"
Ge       0.00000000       0.00000000       0.00000000       0.00000000       0.00000000     -10.27678490
Ge       0.00000000       0.00000000       1.82606061       0.00000000       0.00000000      10.27678490
2
Properties=species:S:1:pos:R:3:forces:R:3 energy=-22.76444904917979 pbc="F F F"
Ge       0.00000000       0.00000000       0.00000000       0.00000000       0.00000000      -5.66781902
Ge       0.00000000       0.00000000       1.88484848       0.00000000       0.00000000       5.66781902
2
Properties=species:S:1:pos:R:3:forces:R:3 energy=-22.985518138346862 pbc="F F F"
Ge       0.00000000       0.00000000       0.00000000       0.00000000       0.00000000      -1.92666686
Ge       0.00000000       0.00000000       1.94363636       0.00000000       0.00000000       1.92666686
2
Properties=species:S:1:pos:R:3:forces:R:3 energy=-23.002885903323943 pbc="F F F"
Ge       0.00000000       0.00000000       0.00000000       0.00000000       0.00000000       1.14138794
Ge       0.00000000       0.00000000       2.00242424       0.00000000       0.00000000      -1.14138794
2
Properties=species:S:1:pos:R:3:forces:R:3 energy=-22.889865119349558 pbc="F F F"
Ge       0.00000000       0.00000000       0.00000000       0.00000000       0.00000000       2.26543331
Ge       0.00000000       0.00000000       2.06121212       0.00000000       0.00000000      -2.26543331
2
Properties=species:S:1:pos:R:3:forces:R:3 energy=-22.789405878461196 pbc="F F F"
Ge       0.00000000       0.00000000       0.00000000       0.00000000       0.00000000       0.78184348
Ge       0.00000000       0.00000000       2.12000000       0.00000000       0.00000000      -0.78184348
2
Properties=species:S:1:pos:R:3:forces:R:3 energy=-22.818199866632895 pbc="F F F"
Ge       0.00000000       0.00000000       0.00000000       0.00000000       0.00000000      -1.69916248
Ge       0.00000000       0.00000000       2.17878788       0.00000000       0.00000000       1.69916248
2
Properties=species:S:1:pos:R:3:forces:R:3 energy=-22.95978491937378 pbc="F F F"
Ge       0.00000000       0.00000000       0.00000000       0.00000000       0.00000000      -2.76751089
Ge       0.00000000       0.00000000       2.23757576       0.00000000       0.00000000       2.76751089
2
Properties=species:S:1:pos:R:3:forces:R:3 energy=-23.10735930816703 pbc="F F F"
Ge       0.00000000       0.00000000       0.00000000       0.00000000       0.00000000      -2.04924703
Ge       0.00000000       0.00000000       2.29636364       0.00000000       0.00000000       2.04924703
2
Properties=species:S:1:pos:R:3:forces:R:3 energy=-23.191061063267746 pbc="F F F"
Ge       0.00000000       0.00000000       0.00000000       0.00000000       0.00000000      -0.81194162
Ge       0.00000000       0.00000000       2.35515152       0.00000000       0.00000000       0.81194162
2
Properties=species:S:1:pos:R:3:forces:R:3 energy=-23.209618554929747 pbc="F F F"
Ge       0.00000000       0.00000000       0.00000000       0.00000000       0.00000000       0.10693312
Ge       0.00000000       0.00000000       2.41393939       0.00000000       0.00000000      -0.10693312
2
Properties=species:S:1:pos:R:3:forces:R:3 energy=-23.186035260600864 pbc="F F F"
Ge       0.00000000       0.00000000       0.00000000       0.00000000       0.00000000       0.64839828
Ge       0.00000000       0.00000000       2.47272727       0.00000000       0.00000000      -0.64839828
2
Properties=species:S:1:pos:R:3:forces:R:3 energy=-23.136460182896496 pbc="F F F"
Ge       0.00000000       0.00000000       0.00000000       0.00000000       0.00000000       1.03206289
Ge       0.00000000       0.00000000       2.53151515       0.00000000       0.00000000      -1.03206289
2
Properties=species:S:1:pos:R:3:forces:R:3 energy=-23.06358145680234 pbc="F F F"
Ge       0.00000000       0.00000000       0.00000000       0.00000000       0.00000000       1.46674204
Ge       0.00000000       0.00000000       2.59030303       0.00000000       0.00000000      -1.46674204
2
Properties=species:S:1:pos:R:3:forces:R:3 energy=-22.961809944811126 pbc="F F F"
Ge       0.00000000       0.00000000       0.00000000       0.00000000       0.00000000       2.00602055
Ge       0.00000000       0.00000000       2.64909091       0.00000000       0.00000000      -2.00602055
2
Properties=species:S:1:pos:R:3:forces:R:3 energy=-22.828458408888494 pbc="F F F"
Ge       0.00000000       0.00000000       0.00000000       0.00000000       0.00000000       2.50568509
Ge       0.00000000       0.00000000       2.70787879       0.00000000       0.00000000      -2.50568509
2
Properties=species:S:1:pos:R:3:forces:R:3 energy=-22.671992218829878 pbc="F F F"
Ge       0.00000000       0.00000000       0.00000000       0.00000000       0.00000000       2.76623821
Ge       0.00000000       0.00000000       2.76666667       0.00000000       0.00000000      -2.76623821
2
Properties=species:S:1:pos:R:3:forces:R:3 energy=-22.509259185764186 pbc="F F F"
Ge       0.00000000       0.00000000       0.00000000       0.00000000       0.00000000       2.72497034
Ge       0.00000000       0.00000000       2.82545455       0.00000000       0.00000000      -2.72497034
2
Properties=species:S:1:pos:R:3:forces:R:3 energy=-22.355310065968624 pbc="F F F"
Ge       0.00000000       0.00000000       0.00000000       0.00000000       0.00000000       2.49670887
Ge       0.00000000       0.00000000       2.88424242       0.00000000       0.00000000      -2.49670887
2
Properties=species:S:1:pos:R:3:forces:R:3 energy=-22.215785574283164 pbc="F F F"
Ge       0.00000000       0.00000000       0.00000000       0.00000000       0.00000000       2.26174378
Ge       0.00000000       0.00000000       2.94303030       0.00000000       0.00000000      -2.26174378
2
Properties=species:S:1:pos:R:3:forces:R:3 energy=-22.08726373204016 pbc="F F F"
Ge       0.00000000       0.00000000       0.00000000       0.00000000       0.00000000       2.13052726
Ge       0.00000000       0.00000000       3.00181818       0.00000000       0.00000000      -2.13052726
2
Properties=species:S:1:pos:R:3:forces:R:3 energy=-21.963334749434793 pbc="F F F"
Ge       0.00000000       0.00000000       0.00000000       0.00000000       0.00000000       2.09665871
Ge       0.00000000       0.00000000       3.06060606       0.00000000       0.00000000      -2.09665871
2
Properties=species:S:1:pos:R:3:forces:R:3 energy=-21.8402469683249 pbc="F F F"
Ge       0.00000000       0.00000000       0.00000000       0.00000000       0.00000000       2.08887887
Ge       0.00000000       0.00000000       3.11939394       0.00000000       0.00000000      -2.08887887
2
Properties=species:S:1:pos:R:3:forces:R:3 energy=-21.718444882651315 pbc="F F F"
Ge       0.00000000       0.00000000       0.00000000       0.00000000       0.00000000       2.04637742
Ge       0.00000000       0.00000000       3.17818182       0.00000000       0.00000000      -2.04637742
2
Properties=species:S:1:pos:R:3:forces:R:3 energy=-21.600671228999726 pbc="F F F"
Ge       0.00000000       0.00000000       0.00000000       0.00000000       0.00000000       1.95273733
Ge       0.00000000       0.00000000       3.23696970       0.00000000       0.00000000      -1.95273733
2
Properties=species:S:1:pos:R:3:forces:R:3 energy=-21.48951593970877 pbc="F F F"
Ge       0.00000000       0.00000000       0.00000000       0.00000000       0.00000000       1.82547510
Ge       0.00000000       0.00000000       3.29575758       0.00000000       0.00000000      -1.82547510
2
Properties=species:S:1:pos:R:3:forces:R:3 energy=-21.38616727934631 pbc="F F F"
Ge       0.00000000       0.00000000       0.00000000       0.00000000       0.00000000       1.69133914
Ge       0.00000000       0.00000000       3.35454545       0.00000000       0.00000000      -1.69133914
2
Properties=species:S:1:pos:R:3:forces:R:3 energy=-21.290393963908116 pbc="F F F"
Ge       0.00000000       0.00000000       0.00000000       0.00000000       0.00000000       1.57008839
Ge       0.00000000       0.00000000       3.41333333       0.00000000       0.00000000      -1.57008839
2
Properties=species:S:1:pos:R:3:forces:R:3 energy=-21.201131685409777 pbc="F F F"
Ge       0.00000000       0.00000000       0.00000000       0.00000000       0.00000000       1.47058451
Ge       0.00000000       0.00000000       3.47212121       0.00000000       0.00000000      -1.47058451
2
Properties=species:S:1:pos:R:3:forces:R:3 energy=-21.117048248578495 pbc="F F F"
Ge       0.00000000       0.00000000       0.00000000       0.00000000       0.00000000       1.39346361
Ge       0.00000000       0.00000000       3.53090909       0.00000000       0.00000000      -1.39346361
2
Properties=species:S:1:pos:R:3:forces:R:3 energy=-21.036927332026696 pbc="F F F"
Ge       0.00000000       0.00000000       0.00000000       0.00000000       0.00000000       1.33493483
Ge       0.00000000       0.00000000       3.58969697       0.00000000       0.00000000      -1.33493483
2
Properties=species:S:1:pos:R:3:forces:R:3 energy=-20.959836494906753 pbc="F F F"
Ge       0.00000000       0.00000000       0.00000000       0.00000000       0.00000000       1.28945577
Ge       0.00000000       0.00000000       3.64848485       0.00000000       0.00000000      -1.28945577
2
Properties=species:S:1:pos:R:3:forces:R:3 energy=-20.88517692240676 pbc="F F F"
Ge       0.00000000       0.00000000       0.00000000       0.00000000       0.00000000       1.25124490
Ge       0.00000000       0.00000000       3.70727273       0.00000000       0.00000000      -1.25124490
2
Properties=species:S:1:pos:R:3:forces:R:3 energy=-20.812679641939532 pbc="F F F"
Ge       0.00000000       0.00000000       0.00000000       0.00000000       0.00000000       1.21511841
Ge       0.00000000       0.00000000       3.76606061       0.00000000       0.00000000      -1.21511841
2
Properties=species:S:1:pos:R:3:forces:R:3 energy=-20.74234838108723 pbc="F F F"
Ge       0.00000000       0.00000000       0.00000000       0.00000000       0.00000000       1.17697537
Ge       0.00000000       0.00000000       3.82484848       0.00000000       0.00000000      -1.17697537
2
Properties=species:S:1:pos:R:3:forces:R:3 energy=-20.674390910178165 pbc="F F F"
Ge       0.00000000       0.00000000       0.00000000       0.00000000       0.00000000       1.13402247
Ge       0.00000000       0.00000000       3.88363636       0.00000000       0.00000000      -1.13402247
2
Properties=species:S:1:pos:R:3:forces:R:3 energy=-20.609138961362675 pbc="F F F"
Ge       0.00000000       0.00000000       0.00000000       0.00000000       0.00000000       1.08478701
Ge       0.00000000       0.00000000       3.94242424       0.00000000       0.00000000      -1.08478701
2
Properties=species:S:1:pos:R:3:forces:R:3 energy=-20.54697765988152 pbc="F F F"
Ge       0.00000000       0.00000000       0.00000000       0.00000000       0.00000000       1.02895057
Ge       0.00000000       0.00000000       4.00121212       0.00000000       0.00000000      -1.02895057
2
Properties=species:S:1:pos:R:3:forces:R:3 energy=-20.488278792998283 pbc="F F F"
Ge       0.00000000       0.00000000       0.00000000       0.00000000       0.00000000       0.96707201
Ge       0.00000000       0.00000000       4.06000000       0.00000000       0.00000000      -0.96707201
2
Properties=species:S:1:pos:R:3:forces:R:3 energy=-20.433368385864558 pbc="F F F"
Ge       0.00000000       0.00000000       0.00000000       0.00000000       0.00000000       0.90032095
Ge       0.00000000       0.00000000       4.11878788       0.00000000       0.00000000      -0.90032095
2
Properties=species:S:1:pos:R:3:forces:R:3 energy=-20.382488554547287 pbc="F F F"
Ge       0.00000000       0.00000000       0.00000000       0.00000000       0.00000000       0.83023030
Ge       0.00000000       0.00000000       4.17757576       0.00000000       0.00000000      -0.83023030
2
Properties=species:S:1:pos:R:3:forces:R:3 energy=-20.335784178347016 pbc="F F F"
Ge       0.00000000       0.00000000       0.00000000       0.00000000       0.00000000       0.75851917
Ge       0.00000000       0.00000000       4.23636364       0.00000000       0.00000000      -0.75851917
2
Properties=species:S:1:pos:R:3:forces:R:3 energy=-20.293300977402083 pbc="F F F"
Ge       0.00000000       0.00000000       0.00000000       0.00000000       0.00000000       0.68693537
Ge       0.00000000       0.00000000       4.29515152       0.00000000       0.00000000      -0.68693537
2
Properties=species:S:1:pos:R:3:forces:R:3 energy=-20.25498172412591 pbc="F F F"
Ge       0.00000000       0.00000000       0.00000000       0.00000000       0.00000000       0.61716104
Ge       0.00000000       0.00000000       4.35393939       0.00000000       0.00000000      -0.61716104
2
Properties=species:S:1:pos:R:3:forces:R:3 energy=-20.220673855970443 pbc="F F F"
Ge       0.00000000       0.00000000       0.00000000       0.00000000       0.00000000       0.55065298
Ge       0.00000000       0.00000000       4.41272727       0.00000000       0.00000000      -0.55065298
2
Properties=species:S:1:pos:R:3:forces:R:3 energy=-20.190152401623635 pbc="F F F"
Ge       0.00000000       0.00000000       0.00000000       0.00000000       0.00000000       0.48854539
Ge       0.00000000       0.00000000       4.47151515       0.00000000       0.00000000      -0.48854539
2
Properties=species:S:1:pos:R:3:forces:R:3 energy=-20.16313328097275 pbc="F F F"
Ge       0.00000000       0.00000000       0.00000000       0.00000000       0.00000000       0.43152437
Ge       0.00000000       0.00000000       4.53030303       0.00000000       0.00000000      -0.43152437
2
Properties=species:S:1:pos:R:3:forces:R:3 energy=-20.13931150751391 pbc="F F F"
Ge       0.00000000       0.00000000       0.00000000       0.00000000       0.00000000       0.37976354
Ge       0.00000000       0.00000000       4.58909091       0.00000000       0.00000000      -0.37976354
2
Properties=species:S:1:pos:R:3:forces:R:3 energy=-20.118385964085434 pbc="F F F"
Ge       0.00000000       0.00000000       0.00000000       0.00000000       0.00000000       0.33293152
Ge       0.00000000       0.00000000       4.64787879       0.00000000       0.00000000      -0.33293152
2
Properties=species:S:1:pos:R:3:forces:R:3 energy=-20.10008418731269 pbc="F F F"
Ge       0.00000000       0.00000000       0.00000000       0.00000000       0.00000000       0.29028681
Ge       0.00000000       0.00000000       4.70666667       0.00000000       0.00000000      -0.29028681
2
Properties=species:S:1:pos:R:3:forces:R:3 energy=-20.084191007139943 pbc="F F F"
Ge       0.00000000       0.00000000       0.00000000       0.00000000       0.00000000       0.25089437
Ge       0.00000000       0.00000000       4.76545455       0.00000000       0.00000000      -0.25089437
2
Properties=species:S:1:pos:R:3:forces:R:3 energy=-20.07053897840896 pbc="F F F"
Ge       0.00000000       0.00000000       0.00000000       0.00000000       0.00000000       0.21386153
Ge       0.00000000       0.00000000       4.82424242       0.00000000       0.00000000      -0.21386153
2
Properties=species:S:1:pos:R:3:forces:R:3 energy=-20.05901221931495 pbc="F F F"
Ge       0.00000000       0.00000000       0.00000000       0.00000000       0.00000000       0.17864102
Ge       0.00000000       0.00000000       4.88303030       0.00000000       0.00000000      -0.17864102
2
Properties=species:S:1:pos:R:3:forces:R:3 energy=-20.049502513877613 pbc="F F F"
Ge       0.00000000       0.00000000       0.00000000       0.00000000       0.00000000       0.14518626
Ge       0.00000000       0.00000000       4.94181818       0.00000000       0.00000000      -0.14518626
2
Properties=species:S:1:pos:R:3:forces:R:3 energy=-20.04189597238003 pbc="F F F"
Ge       0.00000000       0.00000000       0.00000000       0.00000000       0.00000000       0.11398818
Ge       0.00000000       0.00000000       5.00060606       0.00000000       0.00000000      -0.11398818
2
Properties=species:S:1:pos:R:3:forces:R:3 energy=-20.036038693549596 pbc="F F F"
Ge       0.00000000       0.00000000       0.00000000       0.00000000       0.00000000       0.08591186
Ge       0.00000000       0.00000000       5.05939394       0.00000000       0.00000000      -0.08591186
2
Properties=species:S:1:pos:R:3:forces:R:3 energy=-20.031713863703136 pbc="F F F"
Ge       0.00000000       0.00000000       0.00000000       0.00000000       0.00000000       0.06200849
Ge       0.00000000       0.00000000       5.11818182       0.00000000       0.00000000      -0.06200849
2
Properties=species:S:1:pos:R:3:forces:R:3 energy=-20.028645560356786 pbc="F F F"
Ge       0.00000000       0.00000000       0.00000000       0.00000000       0.00000000       0.04336445
Ge       0.00000000       0.00000000       5.17696970       0.00000000       0.00000000      -0.04336445
2
Properties=species:S:1:pos:R:3:forces:R:3 energy=-20.026493030180102 pbc="F F F"
Ge       0.00000000       0.00000000       0.00000000       0.00000000       0.00000000       0.03092436
Ge       0.00000000       0.00000000       5.23575758       0.00000000       0.00000000      -0.03092436
2
Properties=species:S:1:pos:R:3:forces:R:3 energy=-20.024879292889903 pbc="F F F"
Ge       0.00000000       0.00000000       0.00000000       0.00000000       0.00000000       0.02501743
Ge       0.00000000       0.00000000       5.29454545       0.00000000       0.00000000      -0.02501743
2
Properties=species:S:1:pos:R:3:forces:R:3 energy=-20.02345025084292 pbc="F F F"
Ge       0.00000000       0.00000000       0.00000000       0.00000000       0.00000000       0.02421011
Ge       0.00000000       0.00000000       5.35333333       0.00000000       0.00000000      -0.02421011
2
Properties=species:S:1:pos:R:3:forces:R:3 energy=-20.022015830458738 pbc="F F F"
Ge       0.00000000       0.00000000       0.00000000       0.00000000       0.00000000       0.02424376
Ge       0.00000000       0.00000000       5.41212121       0.00000000       0.00000000      -0.02424376
2
Properties=species:S:1:pos:R:3:forces:R:3 energy=-20.02067204619668 pbc="F F F"
Ge       0.00000000       0.00000000       0.00000000       0.00000000       0.00000000       0.02095424
Ge       0.00000000       0.00000000       5.47090909       0.00000000       0.00000000      -0.02095424
2
Properties=species:S:1:pos:R:3:forces:R:3 energy=-20.019530149130357 pbc="F F F"
Ge       0.00000000       0.00000000       0.00000000       0.00000000       0.00000000       0.01900407
Ge       0.00000000       0.00000000       5.52969697       0.00000000       0.00000000      -0.01900407
2
Properties=species:S:1:pos:R:3:forces:R:3 energy=-20.018243587459725 pbc="F F F"
Ge       0.00000000       0.00000000       0.00000000       0.00000000       0.00000000       0.02618914
Ge       0.00000000       0.00000000       5.58848485       0.00000000       0.00000000      -0.02618914
2
Properties=species:S:1:pos:R:3:forces:R:3 energy=-20.016397124243106 pbc="F F F"
Ge       0.00000000       0.00000000       0.00000000       0.00000000       0.00000000       0.03611501
Ge       0.00000000       0.00000000       5.64727273       0.00000000       0.00000000      -0.03611501
2
Properties=species:S:1:pos:R:3:forces:R:3 energy=-20.014138133760678 pbc="F F F"
Ge       0.00000000       0.00000000       0.00000000       0.00000000       0.00000000       0.03927476
Ge       0.00000000       0.00000000       5.70606061       0.00000000       0.00000000      -0.03927476
2
Properties=species:S:1:pos:R:3:forces:R:3 energy=-20.011905775035665 pbc="F F F"
Ge       0.00000000       0.00000000       0.00000000       0.00000000       0.00000000       0.03595144
Ge       0.00000000       0.00000000       5.76484848       0.00000000       0.00000000      -0.03595144
2
Properties=species:S:1:pos:R:3:forces:R:3 energy=-20.009952247723483 pbc="F F F"
Ge       0.00000000       0.00000000       0.00000000       0.00000000       0.00000000       0.03014940
Ge       0.00000000       0.00000000       5.82363636       0.00000000       0.00000000      -0.03014940
2
Properties=species:S:1:pos:R:3:forces:R:3 energy=-20.008459122559323 pbc="F F F"
Ge       0.00000000       0.00000000       0.00000000       0.00000000       0.00000000       0.01992781
Ge       0.00000000       0.00000000       5.88242424       0.00000000       0.00000000      -0.01992781
2
Properties=species:S:1:pos:R:3:forces:R:3 energy=-20.007640344915966 pbc="F F F"
Ge       0.00000000       0.00000000       0.00000000       0.00000000       0.00000000       0.00827249
Ge       0.00000000       0.00000000       5.94121212       0.00000000       0.00000000      -0.00827249
2
Properties=species:S:1:pos:R:3:forces:R:3 energy=-20.00734932850899 pbc="F F F"
Ge       0.00000000       0.00000000       0.00000000       0.00000000       0.00000000       0.00325047
Ge       0.00000000       0.00000000       6.00000000       0.00000000       0.00000000      -0.00325047
