2
Properties=species:S:1:pos:R:3:forces:R:3 energy=57.87286346675035 pbc="F F F"
He       0.00000000       0.00000000       0.00000000       0.00000000       0.00000000    -705.91210938
He       0.00000000       0.00000000       0.18000000       0.00000000       0.00000000     705.91210938
2
Properties=species:S:1:pos:R:3:forces:R:3 energy=28.354587252150743 pbc="F F F"
He       0.00000000       0.00000000       0.00000000       0.00000000       0.00000000    -357.22991943
He       0.00000000       0.00000000       0.23878788       0.00000000       0.00000000     357.22991943
2
Properties=species:S:1:pos:R:3:forces:R:3 energy=13.06883114107997 pbc="F F F"
He       0.00000000       0.00000000       0.00000000       0.00000000       0.00000000    -171.59524536
He       0.00000000       0.00000000       0.29757576       0.00000000       0.00000000     171.59524536
2
Properties=species:S:1:pos:R:3:forces:R:3 energy=6.518029387255407 pbc="F F F"
He       0.00000000       0.00000000       0.00000000       0.00000000       0.00000000     -79.49227142
He       0.00000000       0.00000000       0.35636364       0.00000000       0.00000000      79.49227142
2
Properties=species:S:1:pos:R:3:forces:R:3 energy=2.3871950465774416 pbc="F F F"
He       0.00000000       0.00000000       0.00000000       0.00000000       0.00000000     -56.25191879
He       0.00000000       0.00000000       0.41515152       0.00000000       0.00000000      56.25191879
2
Properties=species:S:1:pos:R:3:forces:R:3 energy=0.24417376181074374 pbc="F F F"
He       0.00000000       0.00000000       0.00000000       0.00000000       0.00000000     -17.75025558
He       0.00000000       0.00000000       0.47393939       0.00000000       0.00000000      17.75025558
2
Properties=species:S:1:pos:R:3:forces:R:3 energy=-0.1746929009250557 pbc="F F F"
He       0.00000000       0.00000000       0.00000000       0.00000000       0.00000000      -1.98807311
He       0.00000000       0.00000000       0.53272727       0.00000000       0.00000000       1.98807311
2
Properties=species:S:1:pos:R:3:forces:R:3 energy=-0.49512478655367975 pbc="F F F"
He       0.00000000       0.00000000       0.00000000       0.00000000       0.00000000     -10.18797779
He       0.00000000       0.00000000       0.59151515       0.00000000       0.00000000      10.18797779
2
Properties=species:S:1:pos:R:3:forces:R:3 energy=-1.2065960719159423 pbc="F F F"
He       0.00000000       0.00000000       0.00000000       0.00000000       0.00000000     -11.47185612
He       0.00000000       0.00000000       0.65030303       0.00000000       0.00000000      11.47185612
2
Properties=species:S:1:pos:R:3:forces:R:3 energy=-1.5984547624683618 pbc="F F F"
He       0.00000000       0.00000000       0.00000000       0.00000000       0.00000000      -0.92471898
He       0.00000000       0.00000000       0.70909091       0.00000000       0.00000000       0.92471898
2
Properties=species:S:1:pos:R:3:forces:R:3 energy=-1.3439505490447656 pbc="F F F"
He       0.00000000       0.00000000       0.00000000       0.00000000       0.00000000       8.81336308
He       0.00000000       0.00000000       0.76787879       0.00000000       0.00000000      -8.81336308
2
Properties=species:S:1:pos:R:3:forces:R:3 energy=-0.5997503648236812 pbc="F F F"
He       0.00000000       0.00000000       0.00000000       0.00000000       0.00000000      16.49661446
He       0.00000000       0.00000000       0.82666667       0.00000000       0.00000000     -16.49661446
2
Properties=species:S:1:pos:R:3:forces:R:3 energy=0.5270249200864267 pbc="F F F"
He       0.00000000       0.00000000       0.00000000       0.00000000       0.00000000      20.52157021
He       0.00000000       0.00000000       0.88545455       0.00000000       0.00000000     -20.52157021
2
Properties=species:S:1:pos:R:3:forces:R:3 energy=1.6332290407776882 pbc="F F F"
He       0.00000000       0.00000000       0.00000000       0.00000000       0.00000000      15.80752754
He       0.00000000       0.00000000       0.94424242       0.00000000       0.00000000     -15.80752754
2
Properties=species:S:1:pos:R:3:forces:R:3 energy=2.3019514704150663 pbc="F F F"
He       0.00000000       0.00000000       0.00000000       0.00000000       0.00000000       6.84041357
He       0.00000000       0.00000000       1.00303030       0.00000000       0.00000000      -6.84041357
2
Properties=species:S:1:pos:R:3:forces:R:3 energy=2.473816985322252 pbc="F F F"
He       0.00000000       0.00000000       0.00000000       0.00000000       0.00000000      -0.45342705
He       0.00000000       0.00000000       1.06181818       0.00000000       0.00000000       0.45342705
2
Properties=species:S:1:pos:R:3:forces:R:3 energy=2.3148312002847353 pbc="F F F"
He       0.00000000       0.00000000       0.00000000       0.00000000       0.00000000      -4.44781923
He       0.00000000       0.00000000       1.12060606       0.00000000       0.00000000       4.44781923
2
Properties=species:S:1:pos:R:3:forces:R:3 energy=1.998656305005484 pbc="F F F"
He       0.00000000       0.00000000       0.00000000       0.00000000       0.00000000      -6.00345802
He       0.00000000       0.00000000       1.17939394       0.00000000       0.00000000       6.00345802
2
Properties=species:S:1:pos:R:3:forces:R:3 energy=1.6349627047319952 pbc="F F F"
He       0.00000000       0.00000000       0.00000000       0.00000000       0.00000000      -6.21781826
He       0.00000000       0.00000000       1.23818182       0.00000000       0.00000000       6.21781826
2
Properties=species:S:1:pos:R:3:forces:R:3 energy=1.2797191663530554 pbc="F F F"
He       0.00000000       0.00000000       0.00000000       0.00000000       0.00000000      -5.80206442
He       0.00000000       0.00000000       1.29696970       0.00000000       0.00000000       5.80206442
2
Properties=species:S:1:pos:R:3:forces:R:3 energy=0.957535440703609 pbc="F F F"
He       0.00000000       0.00000000       0.00000000       0.00000000       0.00000000      -5.13742256
He       0.00000000       0.00000000       1.35575758       0.00000000       0.00000000       5.13742256
2
Properties=species:S:1:pos:R:3:forces:R:3 energy=0.6767738281299156 pbc="F F F"
He       0.00000000       0.00000000       0.00000000       0.00000000       0.00000000      -4.41415024
He       0.00000000       0.00000000       1.41454545       0.00000000       0.00000000       4.41415024
2
Properties=species:S:1:pos:R:3:forces:R:3 energy=0.43788369614173234 pbc="F F F"
He       0.00000000       0.00000000       0.00000000       0.00000000       0.00000000      -3.72264671
He       0.00000000       0.00000000       1.47333333       0.00000000       0.00000000       3.72264671
2
Properties=species:S:1:pos:R:3:forces:R:3 energy=0.23767531140513606 pbc="F F F"
He       0.00000000       0.00000000       0.00000000       0.00000000       0.00000000      -3.10190535
He       0.00000000       0.00000000       1.53212121       0.00000000       0.00000000       3.10190535
2
Properties=species:S:1:pos:R:3:forces:R:3 energy=0.07153850326175686 pbc="F F F"
He       0.00000000       0.00000000       0.00000000       0.00000000       0.00000000      -2.56445265
He       0.00000000       0.00000000       1.59090909       0.00000000       0.00000000       2.56445265
2
Properties=species:S:1:pos:R:3:forces:R:3 energy=-0.06545661697442251 pbc="F F F"
He       0.00000000       0.00000000       0.00000000       0.00000000       0.00000000      -2.10934472
He       0.00000000       0.00000000       1.64969697       0.00000000       0.00000000       2.10934472
2
Properties=species:S:1:pos:R:3:forces:R:3 energy=-0.17794736742735462 pbc="F F F"
He       0.00000000       0.00000000       0.00000000       0.00000000       0.00000000      -1.72934365
He       0.00000000       0.00000000       1.70848485       0.00000000       0.00000000       1.72934365
2
Properties=species:S:1:pos:R:3:forces:R:3 energy=-0.2700644851818613 pbc="F F F"
He       0.00000000       0.00000000       0.00000000       0.00000000       0.00000000      -1.41471577
He       0.00000000       0.00000000       1.76727273       0.00000000       0.00000000       1.41471577
2
Properties=species:S:1:pos:R:3:forces:R:3 energy=-0.3453612858663348 pbc="F F F"
He       0.00000000       0.00000000       0.00000000       0.00000000       0.00000000      -1.15531087
He       0.00000000       0.00000000       1.82606061       0.00000000       0.00000000       1.15531087
2
Properties=species:S:1:pos:R:3:forces:R:3 energy=-0.406799150292964 pbc="F F F"
He       0.00000000       0.00000000       0.00000000       0.00000000       0.00000000      -0.94167602
He       0.00000000       0.00000000       1.88484848       0.00000000       0.00000000       0.94167602
2
Properties=species:S:1:pos:R:3:forces:R:3 energy=-0.4568141919559326 pbc="F F F"
He       0.00000000       0.00000000       0.00000000       0.00000000       0.00000000      -0.76551479
He       0.00000000       0.00000000       1.94363636       0.00000000       0.00000000       0.76551479
2
Properties=species:S:1:pos:R:3:forces:R:3 energy=-0.49740073365815873 pbc="F F F"
He       0.00000000       0.00000000       0.00000000       0.00000000       0.00000000      -0.61983848
He       0.00000000       0.00000000       2.00242424       0.00000000       0.00000000       0.61983848
2
Properties=species:S:1:pos:R:3:forces:R:3 energy=-0.5301779154790941 pbc="F F F"
He       0.00000000       0.00000000       0.00000000       0.00000000       0.00000000      -0.49896348
He       0.00000000       0.00000000       2.06121212       0.00000000       0.00000000       0.49896348
2
Properties=species:S:1:pos:R:3:forces:R:3 energy=-0.5564637541645728 pbc="F F F"
He       0.00000000       0.00000000       0.00000000       0.00000000       0.00000000      -0.39840785
He       0.00000000       0.00000000       2.12000000       0.00000000       0.00000000       0.39840785
2
Properties=species:S:1:pos:R:3:forces:R:3 energy=-0.5773511982080693 pbc="F F F"
He       0.00000000       0.00000000       0.00000000       0.00000000       0.00000000      -0.31471726
He       0.00000000       0.00000000       2.17878788       0.00000000       0.00000000       0.31471726
2
Properties=species:S:1:pos:R:3:forces:R:3 energy=-0.5937478849654684 pbc="F F F"
He       0.00000000       0.00000000       0.00000000       0.00000000       0.00000000      -0.24532180
He       0.00000000       0.00000000       2.23757576       0.00000000       0.00000000       0.24532180
2
Properties=species:S:1:pos:R:3:forces:R:3 energy=-0.6064362815189054 pbc="F F F"
He       0.00000000       0.00000000       0.00000000       0.00000000       0.00000000      -0.18830356
He       0.00000000       0.00000000       2.29636364       0.00000000       0.00000000       0.18830356
2
Properties=species:S:1:pos:R:3:forces:R:3 energy=-0.6161013420733953 pbc="F F F"
He       0.00000000       0.00000000       0.00000000       0.00000000       0.00000000      -0.14221282
He       0.00000000       0.00000000       2.35515152       0.00000000       0.00000000       0.14221282
2
Properties=species:S:1:pos:R:3:forces:R:3 energy=-0.6233486873487402 pbc="F F F"
He       0.00000000       0.00000000       0.00000000       0.00000000       0.00000000      -0.10587667
He       0.00000000       0.00000000       2.41393939       0.00000000       0.00000000       0.10587667
2
Properties=species:S:1:pos:R:3:forces:R:3 energy=-0.628719804407411 pbc="F F F"
He       0.00000000       0.00000000       0.00000000       0.00000000       0.00000000      -0.07821042
He       0.00000000       0.00000000       2.47272727       0.00000000       0.00000000       0.07821042
2
Properties=species:S:1:pos:R:3:forces:R:3 energy=-0.6326918684593288 pbc="F F F"
He       0.00000000       0.00000000       0.00000000       0.00000000       0.00000000      -0.05809102
He       0.00000000       0.00000000       2.53151515       0.00000000       0.00000000       0.05809102
2
Properties=species:S:1:pos:R:3:forces:R:3 energy=-0.635673749672396 pbc="F F F"
He       0.00000000       0.00000000       0.00000000       0.00000000       0.00000000      -0.04427494
He       0.00000000       0.00000000       2.59030303       0.00000000       0.00000000       0.04427494
2
Properties=species:S:1:pos:R:3:forces:R:3 energy=-0.6379949273272842 pbc="F F F"
He       0.00000000       0.00000000       0.00000000       0.00000000       0.00000000      -0.03539849
He       0.00000000       0.00000000       2.64909091       0.00000000       0.00000000       0.03539849
2
Properties=species:S:1:pos:R:3:forces:R:3 energy=-0.6399041793567016 pbc="F F F"
He       0.00000000       0.00000000       0.00000000       0.00000000       0.00000000      -0.03002946
He       0.00000000       0.00000000       2.70787879       0.00000000       0.00000000       0.03002946
2
Properties=species:S:1:pos:R:3:forces:R:3 energy=-0.641566900433361 pbc="F F F"
He       0.00000000       0.00000000       0.00000000       0.00000000       0.00000000      -0.02678367
He       0.00000000       0.00000000       2.76666667       0.00000000       0.00000000       0.02678367
2
Properties=species:S:1:pos:R:3:forces:R:3 energy=-0.6430710035475229 pbc="F F F"
He       0.00000000       0.00000000       0.00000000       0.00000000       0.00000000      -0.02445415
He       0.00000000       0.00000000       2.82545455       0.00000000       0.00000000       0.02445415
2
Properties=species:S:1:pos:R:3:forces:R:3 energy=-0.6444421197358824 pbc="F F F"
He       0.00000000       0.00000000       0.00000000       0.00000000       0.00000000      -0.02212586
He       0.00000000       0.00000000       2.88424242       0.00000000       0.00000000       0.02212586
2
Properties=species:S:1:pos:R:3:forces:R:3 energy=-0.6456613009827993 pbc="F F F"
He       0.00000000       0.00000000       0.00000000       0.00000000       0.00000000      -0.01924238
He       0.00000000       0.00000000       2.94303030       0.00000000       0.00000000       0.01924238
2
Properties=species:S:1:pos:R:3:forces:R:3 energy=-0.6466895181500275 pbc="F F F"
He       0.00000000       0.00000000       0.00000000       0.00000000       0.00000000      -0.01560951
He       0.00000000       0.00000000       3.00181818       0.00000000       0.00000000       0.01560951
2
Properties=species:S:1:pos:R:3:forces:R:3 energy=-0.6474838141571807 pbc="F F F"
He       0.00000000       0.00000000       0.00000000       0.00000000       0.00000000      -0.01133256
He       0.00000000       0.00000000       3.06060606       0.00000000       0.00000000       0.01133256
2
Properties=species:S:1:pos:R:3:forces:R:3 energy=-0.6480150657451493 pbc="F F F"
He       0.00000000       0.00000000       0.00000000       0.00000000       0.00000000      -0.00671332
He       0.00000000       0.00000000       3.11939394       0.00000000       0.00000000       0.00671332
2
Properties=species:S:1:pos:R:3:forces:R:3 energy=-0.6482741826808889 pbc="F F F"
He       0.00000000       0.00000000       0.00000000       0.00000000       0.00000000      -0.00213360
He       0.00000000       0.00000000       3.17818182       0.00000000       0.00000000       0.00213360
2
Properties=species:S:1:pos:R:3:forces:R:3 energy=-0.6482737168105946 pbc="F F F"
He       0.00000000       0.00000000       0.00000000       0.00000000       0.00000000       0.00204467
He       0.00000000       0.00000000       3.23696970       0.00000000       0.00000000      -0.00204467
2
Properties=species:S:1:pos:R:3:forces:R:3 energy=-0.6480469667525988 pbc="F F F"
He       0.00000000       0.00000000       0.00000000       0.00000000       0.00000000       0.00554184
He       0.00000000       0.00000000       3.29575758       0.00000000       0.00000000      -0.00554184
2
Properties=species:S:1:pos:R:3:forces:R:3 energy=-0.6476393354466161 pbc="F F F"
He       0.00000000       0.00000000       0.00000000       0.00000000       0.00000000       0.00818572
He       0.00000000       0.00000000       3.35454545       0.00000000       0.00000000      -0.00818572
2
Properties=species:S:1:pos:R:3:forces:R:3 energy=-0.6471027257579722 pbc="F F F"
He       0.00000000       0.00000000       0.00000000       0.00000000       0.00000000       0.00990317
He       0.00000000       0.00000000       3.41333333       0.00000000       0.00000000      -0.00990317
2
Properties=species:S:1:pos:R:3:forces:R:3 energy=-0.6464926192065462 pbc="F F F"
He       0.00000000       0.00000000       0.00000000       0.00000000       0.00000000       0.01070789
He       0.00000000       0.00000000       3.47212121       0.00000000       0.00000000      -0.01070789
2
Properties=species:S:1:pos:R:3:forces:R:3 energy=-0.6458603857549119 pbc="F F F"
He       0.00000000       0.00000000       0.00000000       0.00000000       0.00000000       0.01067125
He       0.00000000       0.00000000       3.53090909       0.00000000       0.00000000      -0.01067125
2
Properties=species:S:1:pos:R:3:forces:R:3 energy=-0.6452522695394329 pbc="F F F"
He       0.00000000       0.00000000       0.00000000       0.00000000       0.00000000       0.00990726
He       0.00000000       0.00000000       3.58969697       0.00000000       0.00000000      -0.00990726
2
Properties=species:S:1:pos:R:3:forces:R:3 energy=-0.6447071226068334 pbc="F F F"
He       0.00000000       0.00000000       0.00000000       0.00000000       0.00000000       0.00855012
He       0.00000000       0.00000000       3.64848485       0.00000000       0.00000000      -0.00855012
2
Properties=species:S:1:pos:R:3:forces:R:3 energy=-0.6442559274335756 pbc="F F F"
He       0.00000000       0.00000000       0.00000000       0.00000000       0.00000000       0.00673151
He       0.00000000       0.00000000       3.70727273       0.00000000       0.00000000      -0.00673151
2
Properties=species:S:1:pos:R:3:forces:R:3 energy=-0.6439223915740114 pbc="F F F"
He       0.00000000       0.00000000       0.00000000       0.00000000       0.00000000       0.00456275
He       0.00000000       0.00000000       3.76606061       0.00000000       0.00000000      -0.00456275
2
Properties=species:S:1:pos:R:3:forces:R:3 energy=-0.6437247354903678 pbc="F F F"
He       0.00000000       0.00000000       0.00000000       0.00000000       0.00000000       0.00212481
He       0.00000000       0.00000000       3.82484848       0.00000000       0.00000000      -0.00212481
2
Properties=species:S:1:pos:R:3:forces:R:3 energy=-0.6436767049902556 pbc="F F F"
He       0.00000000       0.00000000       0.00000000       0.00000000       0.00000000      -0.00052363
He       0.00000000       0.00000000       3.88363636       0.00000000       0.00000000       0.00052363
2
Properties=species:S:1:pos:R:3:forces:R:3 energy=-0.6437891803169661 pbc="F F F"
He       0.00000000       0.00000000       0.00000000       0.00000000       0.00000000      -0.00331795
He       0.00000000       0.00000000       3.94242424       0.00000000       0.00000000       0.00331795
2
Properties=species:S:1:pos:R:3:forces:R:3 energy=-0.6440677319754322 pbc="F F F"
He       0.00000000       0.00000000       0.00000000       0.00000000       0.00000000      -0.00615439
He       0.00000000       0.00000000       4.00121212       0.00000000       0.00000000       0.00615439
2
Properties=species:S:1:pos:R:3:forces:R:3 energy=-0.6445102367568006 pbc="F F F"
He       0.00000000       0.00000000       0.00000000       0.00000000       0.00000000      -0.00886005
He       0.00000000       0.00000000       4.06000000       0.00000000       0.00000000       0.00886005
2
Properties=species:S:1:pos:R:3:forces:R:3 energy=-0.6451022282544071 pbc="F F F"
He       0.00000000       0.00000000       0.00000000       0.00000000       0.00000000      -0.01119547
He       0.00000000       0.00000000       4.11878788       0.00000000       0.00000000       0.01119547
2
Properties=species:S:1:pos:R:3:forces:R:3 energy=-0.6458140961136848 pbc="F F F"
He       0.00000000       0.00000000       0.00000000       0.00000000       0.00000000      -0.01289656
He       0.00000000       0.00000000       4.17757576       0.00000000       0.00000000       0.01289656
2
Properties=species:S:1:pos:R:3:forces:R:3 energy=-0.6466017417080052 pbc="F F F"
He       0.00000000       0.00000000       0.00000000       0.00000000       0.00000000      -0.01374302
He       0.00000000       0.00000000       4.23636364       0.00000000       0.00000000       0.01374302
2
Properties=species:S:1:pos:R:3:forces:R:3 energy=-0.647411108561905 pbc="F F F"
He       0.00000000       0.00000000       0.00000000       0.00000000       0.00000000      -0.01363188
He       0.00000000       0.00000000       4.29515152       0.00000000       0.00000000       0.01363188
2
Properties=species:S:1:pos:R:3:forces:R:3 energy=-0.6481867063350092 pbc="F F F"
He       0.00000000       0.00000000       0.00000000       0.00000000       0.00000000      -0.01261780
He       0.00000000       0.00000000       4.35393939       0.00000000       0.00000000       0.01261780
2
Properties=species:S:1:pos:R:3:forces:R:3 energy=-0.6488809688750045 pbc="F F F"
He       0.00000000       0.00000000       0.00000000       0.00000000       0.00000000      -0.01091056
He       0.00000000       0.00000000       4.41272727       0.00000000       0.00000000       0.01091056
2
Properties=species:S:1:pos:R:3:forces:R:3 energy=-0.6494621228412664 pbc="F F F"
He       0.00000000       0.00000000       0.00000000       0.00000000       0.00000000      -0.00882905
He       0.00000000       0.00000000       4.47151515       0.00000000       0.00000000       0.00882905
2
Properties=species:S:1:pos:R:3:forces:R:3 energy=-0.649918717862038 pbc="F F F"
He       0.00000000       0.00000000       0.00000000       0.00000000       0.00000000      -0.00672660
He       0.00000000       0.00000000       4.53030303       0.00000000       0.00000000       0.00672660
2
Properties=species:S:1:pos:R:3:forces:R:3 energy=-0.6502587328174264 pbc="F F F"
He       0.00000000       0.00000000       0.00000000       0.00000000       0.00000000      -0.00490963
He       0.00000000       0.00000000       4.58909091       0.00000000       0.00000000       0.00490963
2
Properties=species:S:1:pos:R:3:forces:R:3 energy=-0.6505054041639192 pbc="F F F"
He       0.00000000       0.00000000       0.00000000       0.00000000       0.00000000      -0.00357029
He       0.00000000       0.00000000       4.64787879       0.00000000       0.00000000       0.00357029
2
Properties=species:S:1:pos:R:3:forces:R:3 energy=-0.6506888812469932 pbc="F F F"
He       0.00000000       0.00000000       0.00000000       0.00000000       0.00000000      -0.00275355
He       0.00000000       0.00000000       4.70666667       0.00000000       0.00000000       0.00275355
2
Properties=species:S:1:pos:R:3:forces:R:3 energy=-0.6508376437643616 pbc="F F F"
He       0.00000000       0.00000000       0.00000000       0.00000000       0.00000000      -0.00236623
He       0.00000000       0.00000000       4.76545455       0.00000000       0.00000000       0.00236623
2
Properties=species:S:1:pos:R:3:forces:R:3 energy=-0.6509719454715994 pbc="F F F"
He       0.00000000       0.00000000       0.00000000       0.00000000       0.00000000      -0.00222866
He       0.00000000       0.00000000       4.82424242       0.00000000       0.00000000       0.00222866
2
Properties=species:S:1:pos:R:3:forces:R:3 energy=-0.6511008341850163 pbc="F F F"
He       0.00000000       0.00000000       0.00000000       0.00000000       0.00000000      -0.00215157
He       0.00000000       0.00000000       4.88303030       0.00000000       0.00000000       0.00215157
2
Properties=species:S:1:pos:R:3:forces:R:3 energy=-0.6512236419225245 pbc="F F F"
He       0.00000000       0.00000000       0.00000000       0.00000000       0.00000000      -0.00201127
He       0.00000000       0.00000000       4.94181818       0.00000000       0.00000000       0.00201127
2
Properties=species:S:1:pos:R:3:forces:R:3 energy=-0.6513357668573526 pbc="F F F"
He       0.00000000       0.00000000       0.00000000       0.00000000       0.00000000      -0.00179846
He       0.00000000       0.00000000       5.00060606       0.00000000       0.00000000       0.00179846
2
Properties=species:S:1:pos:R:3:forces:R:3 energy=-0.6514355876517349 pbc="F F F"
He       0.00000000       0.00000000       0.00000000       0.00000000       0.00000000      -0.00161450
He       0.00000000       0.00000000       5.05939394       0.00000000       0.00000000       0.00161450
2
Properties=species:S:1:pos:R:3:forces:R:3 energy=-0.6515291720939181 pbc="F F F"
He       0.00000000       0.00000000       0.00000000       0.00000000       0.00000000      -0.00160961
He       0.00000000       0.00000000       5.11818182       0.00000000       0.00000000       0.00160961
2
Properties=species:S:1:pos:R:3:forces:R:3 energy=-0.6516302773301803 pbc="F F F"
He       0.00000000       0.00000000       0.00000000       0.00000000       0.00000000      -0.00187607
He       0.00000000       0.00000000       5.17696970       0.00000000       0.00000000       0.00187607
2
Properties=species:S:1:pos:R:3:forces:R:3 energy=-0.6517537934621798 pbc="F F F"
He       0.00000000       0.00000000       0.00000000       0.00000000       0.00000000      -0.00234106
He       0.00000000       0.00000000       5.23575758       0.00000000       0.00000000       0.00234106
2
Properties=species:S:1:pos:R:3:forces:R:3 energy=-0.6519040608726202 pbc="F F F"
He       0.00000000       0.00000000       0.00000000       0.00000000       0.00000000      -0.00272602
He       0.00000000       0.00000000       5.29454545       0.00000000       0.00000000       0.00272602
2
Properties=species:S:1:pos:R:3:forces:R:3 energy=-0.6520656913698157 pbc="F F F"
He       0.00000000       0.00000000       0.00000000       0.00000000       0.00000000      -0.00268348
He       0.00000000       0.00000000       5.35333333       0.00000000       0.00000000       0.00268348
2
Properties=species:S:1:pos:R:3:forces:R:3 energy=-0.6522112570878722 pbc="F F F"
He       0.00000000       0.00000000       0.00000000       0.00000000       0.00000000      -0.00225415
He       0.00000000       0.00000000       5.41212121       0.00000000       0.00000000       0.00225415
2
Properties=species:S:1:pos:R:3:forces:R:3 energy=-0.6523407487244055 pbc="F F F"
He       0.00000000       0.00000000       0.00000000       0.00000000       0.00000000      -0.00233112
He       0.00000000       0.00000000       5.47090909       0.00000000       0.00000000       0.00233112
2
Properties=species:S:1:pos:R:3:forces:R:3 energy=-0.6525038677828694 pbc="F F F"
He       0.00000000       0.00000000       0.00000000       0.00000000       0.00000000      -0.00322152
He       0.00000000       0.00000000       5.52969697       0.00000000       0.00000000       0.00322152
2
Properties=species:S:1:pos:R:3:forces:R:3 energy=-0.6526913672618201 pbc="F F F"
He       0.00000000       0.00000000       0.00000000       0.00000000       0.00000000      -0.00275003
He       0.00000000       0.00000000       5.58848485       0.00000000       0.00000000       0.00275003
2
Properties=species:S:1:pos:R:3:forces:R:3 energy=-0.6527859970044234 pbc="F F F"
He       0.00000000       0.00000000       0.00000000       0.00000000       0.00000000      -0.00030809
He       0.00000000       0.00000000       5.64727273       0.00000000       0.00000000       0.00030809
2
Properties=species:S:1:pos:R:3:forces:R:3 energy=-0.652739350654755 pbc="F F F"
He       0.00000000       0.00000000       0.00000000       0.00000000       0.00000000       0.00154092
He       0.00000000       0.00000000       5.70606061       0.00000000       0.00000000      -0.00154092
2
Properties=species:S:1:pos:R:3:forces:R:3 energy=-0.6526590673010573 pbc="F F F"
He       0.00000000       0.00000000       0.00000000       0.00000000       0.00000000       0.00078375
He       0.00000000       0.00000000       5.76484848       0.00000000       0.00000000      -0.00078375
2
Properties=species:S:1:pos:R:3:forces:R:3 energy=-0.6526622635954586 pbc="F F F"
He       0.00000000       0.00000000       0.00000000       0.00000000       0.00000000      -0.00074494
He       0.00000000       0.00000000       5.82363636       0.00000000       0.00000000       0.00074494
2
Properties=species:S:1:pos:R:3:forces:R:3 energy=-0.6527164488967433 pbc="F F F"
He       0.00000000       0.00000000       0.00000000       0.00000000       0.00000000      -0.00087302
He       0.00000000       0.00000000       5.88242424       0.00000000       0.00000000       0.00087302
2
Properties=species:S:1:pos:R:3:forces:R:3 energy=-0.6527507476148415 pbc="F F F"
He       0.00000000       0.00000000       0.00000000       0.00000000       0.00000000      -0.00027579
He       0.00000000       0.00000000       5.94121212       0.00000000       0.00000000       0.00027579
2
Properties=species:S:1:pos:R:3:forces:R:3 energy=-0.6527554984639741 pbc="F F F"
He       0.00000000       0.00000000       0.00000000       0.00000000       0.00000000       0.00001895
He       0.00000000       0.00000000       6.00000000       0.00000000       0.00000000      -0.00001895
