2
Properties=species:S:1:pos:R:3:forces:R:3 energy=57.87286346675035 pbc="F F F"
He       0.00000000       0.00000000       0.00000000       0.00000000       0.00000000    -705.91210938
He       0.00000000       0.00000000       0.18000000       0.00000000       0.00000000     705.91210938
2
Properties=species:S:1:pos:R:3:forces:R:3 energy=28.354589159499376 pbc="F F F"
He       0.00000000       0.00000000       0.00000000       0.00000000       0.00000000    -357.22988892
He       0.00000000       0.00000000       0.23878788       0.00000000       0.00000000     357.22988892
2
Properties=species:S:1:pos:R:3:forces:R:3 energy=13.06883114107997 pbc="F F F"
He       0.00000000       0.00000000       0.00000000       0.00000000       0.00000000    -171.59523010
He       0.00000000       0.00000000       0.29757576       0.00000000       0.00000000     171.59523010
2
Properties=species:S:1:pos:R:3:forces:R:3 energy=6.518029387255407 pbc="F F F"
He       0.00000000       0.00000000       0.00000000       0.00000000       0.00000000     -79.49225616
He       0.00000000       0.00000000       0.35636364       0.00000000       0.00000000      79.49225616
2
Properties=species:S:1:pos:R:3:forces:R:3 energy=2.3871945697402834 pbc="F F F"
He       0.00000000       0.00000000       0.00000000       0.00000000       0.00000000     -56.25191879
He       0.00000000       0.00000000       0.41515152       0.00000000       0.00000000      56.25191879
2
Properties=species:S:1:pos:R:3:forces:R:3 energy=0.24417292734571688 pbc="F F F"
He       0.00000000       0.00000000       0.00000000       0.00000000       0.00000000     -17.75028992
He       0.00000000       0.00000000       0.47393939       0.00000000       0.00000000      17.75028992
2
Properties=species:S:1:pos:R:3:forces:R:3 energy=-0.1746909935764229 pbc="F F F"
He       0.00000000       0.00000000       0.00000000       0.00000000       0.00000000      -1.98788857
He       0.00000000       0.00000000       0.53272727       0.00000000       0.00000000       1.98788857
2
Properties=species:S:1:pos:R:3:forces:R:3 energy=-0.49512553161173944 pbc="F F F"
He       0.00000000       0.00000000       0.00000000       0.00000000       0.00000000     -10.18797493
He       0.00000000       0.00000000       0.59151515       0.00000000       0.00000000      10.18797493
2
Properties=species:S:1:pos:R:3:forces:R:3 energy=-1.2065982176831542 pbc="F F F"
He       0.00000000       0.00000000       0.00000000       0.00000000       0.00000000     -11.47184944
He       0.00000000       0.00000000       0.65030303       0.00000000       0.00000000      11.47184944
2
Properties=species:S:1:pos:R:3:forces:R:3 energy=-1.5984590540027857 pbc="F F F"
He       0.00000000       0.00000000       0.00000000       0.00000000       0.00000000      -0.92473632
He       0.00000000       0.00000000       0.70909091       0.00000000       0.00000000       0.92473632
2
Properties=species:S:1:pos:R:3:forces:R:3 energy=-1.3439450654174463 pbc="F F F"
He       0.00000000       0.00000000       0.00000000       0.00000000       0.00000000       8.81344128
He       0.00000000       0.00000000       0.76787879       0.00000000       0.00000000      -8.81344128
2
Properties=species:S:1:pos:R:3:forces:R:3 energy=-0.5997516761258662 pbc="F F F"
He       0.00000000       0.00000000       0.00000000       0.00000000       0.00000000      16.49660873
He       0.00000000       0.00000000       0.82666667       0.00000000       0.00000000     -16.49660873
2
Properties=species:S:1:pos:R:3:forces:R:3 energy=0.5270296884580087 pbc="F F F"
He       0.00000000       0.00000000       0.00000000       0.00000000       0.00000000      20.52156830
He       0.00000000       0.00000000       0.88545455       0.00000000       0.00000000     -20.52156830
2
Properties=species:S:1:pos:R:3:forces:R:3 energy=1.6332307097077419 pbc="F F F"
He       0.00000000       0.00000000       0.00000000       0.00000000       0.00000000      15.80750561
He       0.00000000       0.00000000       0.94424242       0.00000000       0.00000000     -15.80750561
2
Properties=species:S:1:pos:R:3:forces:R:3 energy=2.3019517088336454 pbc="F F F"
He       0.00000000       0.00000000       0.00000000       0.00000000       0.00000000       6.84038496
He       0.00000000       0.00000000       1.00303030       0.00000000       0.00000000      -6.84038496
2
Properties=species:S:1:pos:R:3:forces:R:3 energy=2.473816985322252 pbc="F F F"
He       0.00000000       0.00000000       0.00000000       0.00000000       0.00000000      -0.45343006
He       0.00000000       0.00000000       1.06181818       0.00000000       0.00000000       0.45343006
2
Properties=species:S:1:pos:R:3:forces:R:3 energy=2.3148319155404726 pbc="F F F"
He       0.00000000       0.00000000       0.00000000       0.00000000       0.00000000      -4.44781113
He       0.00000000       0.00000000       1.12060606       0.00000000       0.00000000       4.44781113
2
Properties=species:S:1:pos:R:3:forces:R:3 energy=1.9986560665869049 pbc="F F F"
He       0.00000000       0.00000000       0.00000000       0.00000000       0.00000000      -6.00345039
He       0.00000000       0.00000000       1.17939394       0.00000000       0.00000000       6.00345039
2
Properties=species:S:1:pos:R:3:forces:R:3 energy=1.6349617510576788 pbc="F F F"
He       0.00000000       0.00000000       0.00000000       0.00000000       0.00000000      -6.21782064
He       0.00000000       0.00000000       1.23818182       0.00000000       0.00000000       6.21782064
2
Properties=species:S:1:pos:R:3:forces:R:3 energy=1.2797244115617956 pbc="F F F"
He       0.00000000       0.00000000       0.00000000       0.00000000       0.00000000      -5.80206299
He       0.00000000       0.00000000       1.29696970       0.00000000       0.00000000       5.80206299
2
Properties=species:S:1:pos:R:3:forces:R:3 energy=0.9575393746101641 pbc="F F F"
He       0.00000000       0.00000000       0.00000000       0.00000000       0.00000000      -5.13741636
He       0.00000000       0.00000000       1.35575758       0.00000000       0.00000000       5.13741636
2
Properties=species:S:1:pos:R:3:forces:R:3 energy=0.6767750202228111 pbc="F F F"
He       0.00000000       0.00000000       0.00000000       0.00000000       0.00000000      -4.41414976
He       0.00000000       0.00000000       1.41454545       0.00000000       0.00000000       4.41414976
2
Properties=species:S:1:pos:R:3:forces:R:3 energy=0.43788560349036515 pbc="F F F"
He       0.00000000       0.00000000       0.00000000       0.00000000       0.00000000      -3.72264886
He       0.00000000       0.00000000       1.47333333       0.00000000       0.00000000       3.72264886
2
Properties=species:S:1:pos:R:3:forces:R:3 energy=0.23767930491633601 pbc="F F F"
He       0.00000000       0.00000000       0.00000000       0.00000000       0.00000000      -3.10190964
He       0.00000000       0.00000000       1.53212121       0.00000000       0.00000000       3.10190964
2
Properties=species:S:1:pos:R:3:forces:R:3 energy=0.07153659591312404 pbc="F F F"
He       0.00000000       0.00000000       0.00000000       0.00000000       0.00000000      -2.56444955
He       0.00000000       0.00000000       1.59090909       0.00000000       0.00000000       2.56444955
2
Properties=species:S:1:pos:R:3:forces:R:3 energy=-0.06545488843972402 pbc="F F F"
He       0.00000000       0.00000000       0.00000000       0.00000000       0.00000000      -2.10934877
He       0.00000000       0.00000000       1.64969697       0.00000000       0.00000000       2.10934877
2
Properties=species:S:1:pos:R:3:forces:R:3 energy=-0.17794674157858448 pbc="F F F"
He       0.00000000       0.00000000       0.00000000       0.00000000       0.00000000      -1.72934473
He       0.00000000       0.00000000       1.70848485       0.00000000       0.00000000       1.72934473
2
Properties=species:S:1:pos:R:3:forces:R:3 energy=-0.2700648130074076 pbc="F F F"
He       0.00000000       0.00000000       0.00000000       0.00000000       0.00000000      -1.41471481
He       0.00000000       0.00000000       1.76727273       0.00000000       0.00000000       1.41471481
2
Properties=species:S:1:pos:R:3:forces:R:3 energy=-0.3453610772500781 pbc="F F F"
He       0.00000000       0.00000000       0.00000000       0.00000000       0.00000000      -1.15530944
He       0.00000000       0.00000000       1.82606061       0.00000000       0.00000000       1.15530944
2
Properties=species:S:1:pos:R:3:forces:R:3 energy=-0.40679873306045056 pbc="F F F"
He       0.00000000       0.00000000       0.00000000       0.00000000       0.00000000      -0.94167799
He       0.00000000       0.00000000       1.88484848       0.00000000       0.00000000       0.94167799
2
Properties=species:S:1:pos:R:3:forces:R:3 energy=-0.4568143707698669 pbc="F F F"
He       0.00000000       0.00000000       0.00000000       0.00000000       0.00000000      -0.76551449
He       0.00000000       0.00000000       1.94363636       0.00000000       0.00000000       0.76551449
2
Properties=species:S:1:pos:R:3:forces:R:3 energy=-0.4974013297046065 pbc="F F F"
He       0.00000000       0.00000000       0.00000000       0.00000000       0.00000000      -0.61983764
He       0.00000000       0.00000000       2.00242424       0.00000000       0.00000000       0.61983764
2
Properties=species:S:1:pos:R:3:forces:R:3 energy=-0.5301776174558702 pbc="F F F"
He       0.00000000       0.00000000       0.00000000       0.00000000       0.00000000      -0.49896464
He       0.00000000       0.00000000       2.06121212       0.00000000       0.00000000       0.49896464
2
Properties=species:S:1:pos:R:3:forces:R:3 energy=-0.5564637541645728 pbc="F F F"
He       0.00000000       0.00000000       0.00000000       0.00000000       0.00000000      -0.39840874
He       0.00000000       0.00000000       2.12000000       0.00000000       0.00000000       0.39840874
2
Properties=species:S:1:pos:R:3:forces:R:3 energy=-0.5773495888826604 pbc="F F F"
He       0.00000000       0.00000000       0.00000000       0.00000000       0.00000000      -0.31472069
He       0.00000000       0.00000000       2.17878788       0.00000000       0.00000000       0.31472069
2
Properties=species:S:1:pos:R:3:forces:R:3 energy=-0.5937476465468893 pbc="F F F"
He       0.00000000       0.00000000       0.00000000       0.00000000       0.00000000      -0.24532168
He       0.00000000       0.00000000       2.23757576       0.00000000       0.00000000       0.24532168
2
Properties=species:S:1:pos:R:3:forces:R:3 energy=-0.6064362219142606 pbc="F F F"
He       0.00000000       0.00000000       0.00000000       0.00000000       0.00000000      -0.18830359
He       0.00000000       0.00000000       2.29636364       0.00000000       0.00000000       0.18830359
2
Properties=species:S:1:pos:R:3:forces:R:3 energy=-0.616101163259461 pbc="F F F"
He       0.00000000       0.00000000       0.00000000       0.00000000       0.00000000      -0.14221358
He       0.00000000       0.00000000       2.35515152       0.00000000       0.00000000       0.14221358
2
Properties=species:S:1:pos:R:3:forces:R:3 energy=-0.6233486873487402 pbc="F F F"
He       0.00000000       0.00000000       0.00000000       0.00000000       0.00000000      -0.10587684
He       0.00000000       0.00000000       2.41393939       0.00000000       0.00000000       0.10587684
2
Properties=species:S:1:pos:R:3:forces:R:3 energy=-0.6287199236167006 pbc="F F F"
He       0.00000000       0.00000000       0.00000000       0.00000000       0.00000000      -0.07821033
He       0.00000000       0.00000000       2.47272727       0.00000000       0.00000000       0.07821033
2
Properties=species:S:1:pos:R:3:forces:R:3 energy=-0.6326920473227603 pbc="F F F"
He       0.00000000       0.00000000       0.00000000       0.00000000       0.00000000      -0.05809079
He       0.00000000       0.00000000       2.53151515       0.00000000       0.00000000       0.05809079
2
Properties=species:S:1:pos:R:3:forces:R:3 energy=-0.6356736900677512 pbc="F F F"
He       0.00000000       0.00000000       0.00000000       0.00000000       0.00000000      -0.04427556
He       0.00000000       0.00000000       2.59030303       0.00000000       0.00000000       0.04427556
2
Properties=species:S:1:pos:R:3:forces:R:3 energy=-0.6379950465365738 pbc="F F F"
He       0.00000000       0.00000000       0.00000000       0.00000000       0.00000000      -0.03539853
He       0.00000000       0.00000000       2.64909091       0.00000000       0.00000000       0.03539853
2
Properties=species:S:1:pos:R:3:forces:R:3 energy=-0.6399042389613464 pbc="F F F"
He       0.00000000       0.00000000       0.00000000       0.00000000       0.00000000      -0.03002958
He       0.00000000       0.00000000       2.70787879       0.00000000       0.00000000       0.03002958
2
Properties=species:S:1:pos:R:3:forces:R:3 energy=-0.641566900433361 pbc="F F F"
He       0.00000000       0.00000000       0.00000000       0.00000000       0.00000000      -0.02678368
He       0.00000000       0.00000000       2.76666667       0.00000000       0.00000000       0.02678368
2
Properties=species:S:1:pos:R:3:forces:R:3 energy=-0.6430713015707468 pbc="F F F"
He       0.00000000       0.00000000       0.00000000       0.00000000       0.00000000      -0.02445417
He       0.00000000       0.00000000       2.82545455       0.00000000       0.00000000       0.02445417
2
Properties=species:S:1:pos:R:3:forces:R:3 energy=-0.6444421793405272 pbc="F F F"
He       0.00000000       0.00000000       0.00000000       0.00000000       0.00000000      -0.02212601
He       0.00000000       0.00000000       2.88424242       0.00000000       0.00000000       0.02212601
2
Properties=species:S:1:pos:R:3:forces:R:3 energy=-0.6456614797967336 pbc="F F F"
He       0.00000000       0.00000000       0.00000000       0.00000000       0.00000000      -0.01924210
He       0.00000000       0.00000000       2.94303030       0.00000000       0.00000000       0.01924210
2
Properties=species:S:1:pos:R:3:forces:R:3 energy=-0.6466894585948799 pbc="F F F"
He       0.00000000       0.00000000       0.00000000       0.00000000       0.00000000      -0.01560922
He       0.00000000       0.00000000       3.00181818       0.00000000       0.00000000       0.01560922
2
Properties=species:S:1:pos:R:3:forces:R:3 energy=-0.6474840525757598 pbc="F F F"
He       0.00000000       0.00000000       0.00000000       0.00000000       0.00000000      -0.01133269
He       0.00000000       0.00000000       3.06060606       0.00000000       0.00000000       0.01133269
2
Properties=species:S:1:pos:R:3:forces:R:3 energy=-0.6480151849544389 pbc="F F F"
He       0.00000000       0.00000000       0.00000000       0.00000000       0.00000000      -0.00671309
He       0.00000000       0.00000000       3.11939394       0.00000000       0.00000000       0.00671309
2
Properties=species:S:1:pos:R:3:forces:R:3 energy=-0.6482741827303862 pbc="F F F"
He       0.00000000       0.00000000       0.00000000       0.00000000       0.00000000      -0.00213363
He       0.00000000       0.00000000       3.17818182       0.00000000       0.00000000       0.00213363
2
Properties=species:S:1:pos:R:3:forces:R:3 energy=-0.6482737764152394 pbc="F F F"
He       0.00000000       0.00000000       0.00000000       0.00000000       0.00000000       0.00204487
He       0.00000000       0.00000000       3.23696970       0.00000000       0.00000000      -0.00204487
2
Properties=species:S:1:pos:R:3:forces:R:3 energy=-0.6480470859618883 pbc="F F F"
He       0.00000000       0.00000000       0.00000000       0.00000000       0.00000000       0.00554209
He       0.00000000       0.00000000       3.29575758       0.00000000       0.00000000      -0.00554209
2
Properties=species:S:1:pos:R:3:forces:R:3 energy=-0.6476392162868237 pbc="F F F"
He       0.00000000       0.00000000       0.00000000       0.00000000       0.00000000       0.00818562
He       0.00000000       0.00000000       3.35454545       0.00000000       0.00000000      -0.00818562
2
Properties=species:S:1:pos:R:3:forces:R:3 energy=-0.6471026661533275 pbc="F F F"
He       0.00000000       0.00000000       0.00000000       0.00000000       0.00000000       0.00990347
He       0.00000000       0.00000000       3.41333333       0.00000000       0.00000000      -0.00990347
2
Properties=species:S:1:pos:R:3:forces:R:3 energy=-0.6464925596019014 pbc="F F F"
He       0.00000000       0.00000000       0.00000000       0.00000000       0.00000000       0.01070758
He       0.00000000       0.00000000       3.47212121       0.00000000       0.00000000      -0.01070758
2
Properties=species:S:1:pos:R:3:forces:R:3 energy=-0.6458606242229882 pbc="F F F"
He       0.00000000       0.00000000       0.00000000       0.00000000       0.00000000       0.01067130
He       0.00000000       0.00000000       3.53090909       0.00000000       0.00000000      -0.01067130
2
Properties=species:S:1:pos:R:3:forces:R:3 energy=-0.6452522695394329 pbc="F F F"
He       0.00000000       0.00000000       0.00000000       0.00000000       0.00000000       0.00990700
He       0.00000000       0.00000000       3.58969697       0.00000000       0.00000000      -0.00990700
2
Properties=species:S:1:pos:R:3:forces:R:3 energy=-0.6447072418656202 pbc="F F F"
He       0.00000000       0.00000000       0.00000000       0.00000000       0.00000000       0.00855023
He       0.00000000       0.00000000       3.64848485       0.00000000       0.00000000      -0.00855023
2
Properties=species:S:1:pos:R:3:forces:R:3 energy=-0.64425610624751 pbc="F F F"
He       0.00000000       0.00000000       0.00000000       0.00000000       0.00000000       0.00673162
He       0.00000000       0.00000000       3.70727273       0.00000000       0.00000000      -0.00673162
2
Properties=species:S:1:pos:R:3:forces:R:3 energy=-0.643922510783301 pbc="F F F"
He       0.00000000       0.00000000       0.00000000       0.00000000       0.00000000       0.00456275
He       0.00000000       0.00000000       3.76606061       0.00000000       0.00000000      -0.00456275
2
Properties=species:S:1:pos:R:3:forces:R:3 energy=-0.6437247951321355 pbc="F F F"
He       0.00000000       0.00000000       0.00000000       0.00000000       0.00000000       0.00212517
He       0.00000000       0.00000000       3.82484848       0.00000000       0.00000000      -0.00212517
2
Properties=species:S:1:pos:R:3:forces:R:3 energy=-0.6436767645949004 pbc="F F F"
He       0.00000000       0.00000000       0.00000000       0.00000000       0.00000000      -0.00052361
He       0.00000000       0.00000000       3.88363636       0.00000000       0.00000000       0.00052361
2
Properties=species:S:1:pos:R:3:forces:R:3 energy=-0.6437892399216109 pbc="F F F"
He       0.00000000       0.00000000       0.00000000       0.00000000       0.00000000      -0.00331782
He       0.00000000       0.00000000       3.94242424       0.00000000       0.00000000       0.00331782
2
Properties=species:S:1:pos:R:3:forces:R:3 energy=-0.6440677320249295 pbc="F F F"
He       0.00000000       0.00000000       0.00000000       0.00000000       0.00000000      -0.00615448
He       0.00000000       0.00000000       4.00121212       0.00000000       0.00000000       0.00615448
2
Properties=species:S:1:pos:R:3:forces:R:3 energy=-0.6445102367568006 pbc="F F F"
He       0.00000000       0.00000000       0.00000000       0.00000000       0.00000000      -0.00885990
He       0.00000000       0.00000000       4.06000000       0.00000000       0.00000000       0.00885990
2
Properties=species:S:1:pos:R:3:forces:R:3 energy=-0.6451022878590519 pbc="F F F"
He       0.00000000       0.00000000       0.00000000       0.00000000       0.00000000      -0.01119543
He       0.00000000       0.00000000       4.11878788       0.00000000       0.00000000       0.01119543
2
Properties=species:S:1:pos:R:3:forces:R:3 energy=-0.6458140961384334 pbc="F F F"
He       0.00000000       0.00000000       0.00000000       0.00000000       0.00000000      -0.01289645
He       0.00000000       0.00000000       4.17757576       0.00000000       0.00000000       0.01289645
2
Properties=species:S:1:pos:R:3:forces:R:3 energy=-0.6466017417698767 pbc="F F F"
He       0.00000000       0.00000000       0.00000000       0.00000000       0.00000000      -0.01374306
He       0.00000000       0.00000000       4.23636364       0.00000000       0.00000000       0.01374306
2
Properties=species:S:1:pos:R:3:forces:R:3 energy=-0.6474111681665498 pbc="F F F"
He       0.00000000       0.00000000       0.00000000       0.00000000       0.00000000      -0.01363177
He       0.00000000       0.00000000       4.29515152       0.00000000       0.00000000       0.01363177
2
Properties=species:S:1:pos:R:3:forces:R:3 energy=-0.6481867063350092 pbc="F F F"
He       0.00000000       0.00000000       0.00000000       0.00000000       0.00000000      -0.01261778
He       0.00000000       0.00000000       4.35393939       0.00000000       0.00000000       0.01261778
2
Properties=species:S:1:pos:R:3:forces:R:3 energy=-0.648880909319857 pbc="F F F"
He       0.00000000       0.00000000       0.00000000       0.00000000       0.00000000      -0.01091063
He       0.00000000       0.00000000       4.41272727       0.00000000       0.00000000       0.01091063
2
Properties=species:S:1:pos:R:3:forces:R:3 energy=-0.6494621824459111 pbc="F F F"
He       0.00000000       0.00000000       0.00000000       0.00000000       0.00000000      -0.00882908
He       0.00000000       0.00000000       4.47151515       0.00000000       0.00000000       0.00882908
2
Properties=species:S:1:pos:R:3:forces:R:3 energy=-0.649918717862038 pbc="F F F"
He       0.00000000       0.00000000       0.00000000       0.00000000       0.00000000      -0.00672654
He       0.00000000       0.00000000       4.53030303       0.00000000       0.00000000       0.00672654
2
Properties=species:S:1:pos:R:3:forces:R:3 energy=-0.6502587328607364 pbc="F F F"
He       0.00000000       0.00000000       0.00000000       0.00000000       0.00000000      -0.00490958
He       0.00000000       0.00000000       4.58909091       0.00000000       0.00000000       0.00490958
2
Properties=species:S:1:pos:R:3:forces:R:3 energy=-0.6505054041639192 pbc="F F F"
He       0.00000000       0.00000000       0.00000000       0.00000000       0.00000000      -0.00357025
He       0.00000000       0.00000000       4.64787879       0.00000000       0.00000000       0.00357025
2
Properties=species:S:1:pos:R:3:forces:R:3 energy=-0.6506888812469932 pbc="F F F"
He       0.00000000       0.00000000       0.00000000       0.00000000       0.00000000      -0.00275355
He       0.00000000       0.00000000       4.70666667       0.00000000       0.00000000       0.00275355
2
Properties=species:S:1:pos:R:3:forces:R:3 energy=-0.6508375841597168 pbc="F F F"
He       0.00000000       0.00000000       0.00000000       0.00000000       0.00000000      -0.00236614
He       0.00000000       0.00000000       4.76545455       0.00000000       0.00000000       0.00236614
2
Properties=species:S:1:pos:R:3:forces:R:3 energy=-0.6509719454715994 pbc="F F F"
He       0.00000000       0.00000000       0.00000000       0.00000000       0.00000000      -0.00222858
He       0.00000000       0.00000000       4.82424242       0.00000000       0.00000000       0.00222858
2
Properties=species:S:1:pos:R:3:forces:R:3 energy=-0.6511008341850163 pbc="F F F"
He       0.00000000       0.00000000       0.00000000       0.00000000       0.00000000      -0.00215166
He       0.00000000       0.00000000       4.88303030       0.00000000       0.00000000       0.00215166
2
Properties=species:S:1:pos:R:3:forces:R:3 energy=-0.6512236419225245 pbc="F F F"
He       0.00000000       0.00000000       0.00000000       0.00000000       0.00000000      -0.00201141
He       0.00000000       0.00000000       4.94181818       0.00000000       0.00000000       0.00201141
2
Properties=species:S:1:pos:R:3:forces:R:3 energy=-0.6513357668573526 pbc="F F F"
He       0.00000000       0.00000000       0.00000000       0.00000000       0.00000000      -0.00179855
He       0.00000000       0.00000000       5.00060606       0.00000000       0.00000000       0.00179855
2
Properties=species:S:1:pos:R:3:forces:R:3 energy=-0.6514356472563797 pbc="F F F"
He       0.00000000       0.00000000       0.00000000       0.00000000       0.00000000      -0.00161449
He       0.00000000       0.00000000       5.05939394       0.00000000       0.00000000       0.00161449
2
Properties=species:S:1:pos:R:3:forces:R:3 energy=-0.6515291720939181 pbc="F F F"
He       0.00000000       0.00000000       0.00000000       0.00000000       0.00000000      -0.00160951
He       0.00000000       0.00000000       5.11818182       0.00000000       0.00000000       0.00160951
2
Properties=species:S:1:pos:R:3:forces:R:3 energy=-0.6516302773518353 pbc="F F F"
He       0.00000000       0.00000000       0.00000000       0.00000000       0.00000000      -0.00187604
He       0.00000000       0.00000000       5.17696970       0.00000000       0.00000000       0.00187604
2
Properties=species:S:1:pos:R:3:forces:R:3 energy=-0.6517537934621798 pbc="F F F"
He       0.00000000       0.00000000       0.00000000       0.00000000       0.00000000      -0.00234102
He       0.00000000       0.00000000       5.23575758       0.00000000       0.00000000       0.00234102
2
Properties=species:S:1:pos:R:3:forces:R:3 energy=-0.6519040608726202 pbc="F F F"
He       0.00000000       0.00000000       0.00000000       0.00000000       0.00000000      -0.00272598
He       0.00000000       0.00000000       5.29454545       0.00000000       0.00000000       0.00272598
2
Properties=species:S:1:pos:R:3:forces:R:3 energy=-0.6520656913883772 pbc="F F F"
He       0.00000000       0.00000000       0.00000000       0.00000000       0.00000000      -0.00268338
He       0.00000000       0.00000000       5.35333333       0.00000000       0.00000000       0.00268338
2
Properties=species:S:1:pos:R:3:forces:R:3 energy=-0.6522112570878722 pbc="F F F"
He       0.00000000       0.00000000       0.00000000       0.00000000       0.00000000      -0.00225413
He       0.00000000       0.00000000       5.41212121       0.00000000       0.00000000       0.00225413
2
Properties=species:S:1:pos:R:3:forces:R:3 energy=-0.6523407487244055 pbc="F F F"
He       0.00000000       0.00000000       0.00000000       0.00000000       0.00000000      -0.00233115
He       0.00000000       0.00000000       5.47090909       0.00000000       0.00000000       0.00233115
2
Properties=species:S:1:pos:R:3:forces:R:3 energy=-0.6525038081905989 pbc="F F F"
He       0.00000000       0.00000000       0.00000000       0.00000000       0.00000000      -0.00322151
He       0.00000000       0.00000000       5.52969697       0.00000000       0.00000000       0.00322151
2
Properties=species:S:1:pos:R:3:forces:R:3 energy=-0.6526913672618201 pbc="F F F"
He       0.00000000       0.00000000       0.00000000       0.00000000       0.00000000      -0.00275001
He       0.00000000       0.00000000       5.58848485       0.00000000       0.00000000       0.00275001
2
Properties=species:S:1:pos:R:3:forces:R:3 energy=-0.6527860566090682 pbc="F F F"
He       0.00000000       0.00000000       0.00000000       0.00000000       0.00000000      -0.00030633
He       0.00000000       0.00000000       5.64727273       0.00000000       0.00000000       0.00030633
2
Properties=species:S:1:pos:R:3:forces:R:3 energy=-0.6527393506671293 pbc="F F F"
He       0.00000000       0.00000000       0.00000000       0.00000000       0.00000000       0.00154072
He       0.00000000       0.00000000       5.70606061       0.00000000       0.00000000      -0.00154072
2
Properties=species:S:1:pos:R:3:forces:R:3 energy=-0.6526590673010573 pbc="F F F"
He       0.00000000       0.00000000       0.00000000       0.00000000       0.00000000       0.00078369
He       0.00000000       0.00000000       5.76484848       0.00000000       0.00000000      -0.00078369
2
Properties=species:S:1:pos:R:3:forces:R:3 energy=-0.6526622039908139 pbc="F F F"
He       0.00000000       0.00000000       0.00000000       0.00000000       0.00000000      -0.00074357
He       0.00000000       0.00000000       5.82363636       0.00000000       0.00000000       0.00074357
2
Properties=species:S:1:pos:R:3:forces:R:3 energy=-0.6527164489029305 pbc="F F F"
He       0.00000000       0.00000000       0.00000000       0.00000000       0.00000000      -0.00087302
He       0.00000000       0.00000000       5.88242424       0.00000000       0.00000000       0.00087302
2
Properties=species:S:1:pos:R:3:forces:R:3 energy=-0.6527507476148415 pbc="F F F"
He       0.00000000       0.00000000       0.00000000       0.00000000       0.00000000      -0.00027640
He       0.00000000       0.00000000       5.94121212       0.00000000       0.00000000       0.00027640
2
Properties=species:S:1:pos:R:3:forces:R:3 energy=-0.6527554984639741 pbc="F F F"
He       0.00000000       0.00000000       0.00000000       0.00000000       0.00000000       0.00001895
He       0.00000000       0.00000000       6.00000000       0.00000000       0.00000000      -0.00001895
