2
Properties=species:S:1:pos:R:3:forces:R:3 energy=-144451.05923414248 pbc="F F F"
Hf       0.00000000       0.00000000       0.00000000       0.00000000       0.00000000 -1870208.62500000
Hf       0.00000000       0.00000000       0.10000000       0.00000000       0.00000000 1870208.62500000
2
Properties=species:S:1:pos:R:3:forces:R:3 energy=-197430.88735914248 pbc="F F F"
Hf       0.00000000       0.00000000       0.00000000       0.00000000       0.00000000 -356540.09375000
Hf       0.00000000       0.00000000       0.15959596       0.00000000       0.00000000  356540.09375000
2
Properties=species:S:1:pos:R:3:forces:R:3 energy=-207056.77798414248 pbc="F F F"
Hf       0.00000000       0.00000000       0.00000000       0.00000000       0.00000000  -20833.04492188
Hf       0.00000000       0.00000000       0.21919192       0.00000000       0.00000000   20833.04492188
2
Properties=species:S:1:pos:R:3:forces:R:3 energy=-202351.80923414248 pbc="F F F"
Hf       0.00000000       0.00000000       0.00000000       0.00000000       0.00000000  175750.28125000
Hf       0.00000000       0.00000000       0.27878788       0.00000000       0.00000000 -175750.28125000
2
Properties=species:S:1:pos:R:3:forces:R:3 energy=-185739.68423414248 pbc="F F F"
Hf       0.00000000       0.00000000       0.00000000       0.00000000       0.00000000  387398.18750000
Hf       0.00000000       0.00000000       0.33838384       0.00000000       0.00000000 -387398.18750000
2
Properties=species:S:1:pos:R:3:forces:R:3 energy=-155750.24673414248 pbc="F F F"
Hf       0.00000000       0.00000000       0.00000000       0.00000000       0.00000000  618346.12500000
Hf       0.00000000       0.00000000       0.39797980       0.00000000       0.00000000 -618346.12500000
2
Properties=species:S:1:pos:R:3:forces:R:3 energy=-113045.43423414169 pbc="F F F"
Hf       0.00000000       0.00000000       0.00000000       0.00000000       0.00000000  796887.93750000
Hf       0.00000000       0.00000000       0.45757576       0.00000000       0.00000000 -796887.93750000
2
Properties=species:S:1:pos:R:3:forces:R:3 energy=-64087.2428278909 pbc="F F F"
Hf       0.00000000       0.00000000       0.00000000       0.00000000       0.00000000  809586.68750000
Hf       0.00000000       0.00000000       0.51717172       0.00000000       0.00000000 -809586.68750000
2
Properties=species:S:1:pos:R:3:forces:R:3 energy=-27265.12173414011 pbc="F F F"
Hf       0.00000000       0.00000000       0.00000000       0.00000000       0.00000000  512095.46875000
Hf       0.00000000       0.00000000       0.57676768       0.00000000       0.00000000 -512095.46875000
2
Properties=species:S:1:pos:R:3:forces:R:3 energy=-5894.951323981483 pbc="F F F"
Hf       0.00000000       0.00000000       0.00000000       0.00000000       0.00000000  199497.76562500
Hf       0.00000000       0.00000000       0.63636364       0.00000000       0.00000000 -199497.76562500
2
Properties=species:S:1:pos:R:3:forces:R:3 energy=830.0419011185492 pbc="F F F"
Hf       0.00000000       0.00000000       0.00000000       0.00000000       0.00000000   46413.73828125
Hf       0.00000000       0.00000000       0.69595960       0.00000000       0.00000000  -46413.73828125
2
Properties=species:S:1:pos:R:3:forces:R:3 energy=2154.9097600108116 pbc="F F F"
Hf       0.00000000       0.00000000       0.00000000       0.00000000       0.00000000   -8553.87890625
Hf       0.00000000       0.00000000       0.75555556       0.00000000       0.00000000    8553.87890625
2
Properties=species:S:1:pos:R:3:forces:R:3 energy=1146.6514592358972 pbc="F F F"
Hf       0.00000000       0.00000000       0.00000000       0.00000000       0.00000000  -34585.92968750
Hf       0.00000000       0.00000000       0.81515152       0.00000000       0.00000000   34585.92968750
2
Properties=species:S:1:pos:R:3:forces:R:3 energy=40.38963368546114 pbc="F F F"
Hf       0.00000000       0.00000000       0.00000000       0.00000000       0.00000000   -1730.95080566
Hf       0.00000000       0.00000000       0.87474747       0.00000000       0.00000000    1730.95080566
2
Properties=species:S:1:pos:R:3:forces:R:3 energy=-262.3681635414946 pbc="F F F"
Hf       0.00000000       0.00000000       0.00000000       0.00000000       0.00000000    1973.13269043
Hf       0.00000000       0.00000000       0.93434343       0.00000000       0.00000000   -1973.13269043
2
Properties=species:S:1:pos:R:3:forces:R:3 energy=-238.18908637246625 pbc="F F F"
Hf       0.00000000       0.00000000       0.00000000       0.00000000       0.00000000     194.74095154
Hf       0.00000000       0.00000000       0.99393939       0.00000000       0.00000000    -194.74095154
2
Properties=species:S:1:pos:R:3:forces:R:3 energy=-215.24752750685718 pbc="F F F"
Hf       0.00000000       0.00000000       0.00000000       0.00000000       0.00000000     485.02481079
Hf       0.00000000       0.00000000       1.05353535       0.00000000       0.00000000    -485.02481079
2
Properties=species:S:1:pos:R:3:forces:R:3 energy=-187.64004456106292 pbc="F F F"
Hf       0.00000000       0.00000000       0.00000000       0.00000000       0.00000000     426.25045776
Hf       0.00000000       0.00000000       1.11313131       0.00000000       0.00000000    -426.25045776
2
Properties=species:S:1:pos:R:3:forces:R:3 energy=-164.8856957586628 pbc="F F F"
Hf       0.00000000       0.00000000       0.00000000       0.00000000       0.00000000     334.72039795
Hf       0.00000000       0.00000000       1.17272727       0.00000000       0.00000000    -334.72039795
2
Properties=species:S:1:pos:R:3:forces:R:3 energy=-147.8228142271637 pbc="F F F"
Hf       0.00000000       0.00000000       0.00000000       0.00000000       0.00000000     241.97299194
Hf       0.00000000       0.00000000       1.23232323       0.00000000       0.00000000    -241.97299194
2
Properties=species:S:1:pos:R:3:forces:R:3 energy=-134.95909039308532 pbc="F F F"
Hf       0.00000000       0.00000000       0.00000000       0.00000000       0.00000000     200.90818787
Hf       0.00000000       0.00000000       1.29191919       0.00000000       0.00000000    -200.90818787
2
Properties=species:S:1:pos:R:3:forces:R:3 energy=-123.03563600863096 pbc="F F F"
Hf       0.00000000       0.00000000       0.00000000       0.00000000       0.00000000     200.24058533
Hf       0.00000000       0.00000000       1.35151515       0.00000000       0.00000000    -200.24058533
2
Properties=species:S:1:pos:R:3:forces:R:3 energy=-111.3911427812666 pbc="F F F"
Hf       0.00000000       0.00000000       0.00000000       0.00000000       0.00000000     187.00260925
Hf       0.00000000       0.00000000       1.41111111       0.00000000       0.00000000    -187.00260925
2
Properties=species:S:1:pos:R:3:forces:R:3 energy=-101.11373784088705 pbc="F F F"
Hf       0.00000000       0.00000000       0.00000000       0.00000000       0.00000000     155.29533386
Hf       0.00000000       0.00000000       1.47070707       0.00000000       0.00000000    -155.29533386
2
Properties=species:S:1:pos:R:3:forces:R:3 energy=-93.1280961705336 pbc="F F F"
Hf       0.00000000       0.00000000       0.00000000       0.00000000       0.00000000     111.41961670
Hf       0.00000000       0.00000000       1.53030303       0.00000000       0.00000000    -111.41961670
2
Properties=species:S:1:pos:R:3:forces:R:3 energy=-87.83898003193694 pbc="F F F"
Hf       0.00000000       0.00000000       0.00000000       0.00000000       0.00000000      67.40191650
Hf       0.00000000       0.00000000       1.58989899       0.00000000       0.00000000     -67.40191650
2
Properties=species:S:1:pos:R:3:forces:R:3 energy=-84.84176447900468 pbc="F F F"
Hf       0.00000000       0.00000000       0.00000000       0.00000000       0.00000000      35.31317139
Hf       0.00000000       0.00000000       1.64949495       0.00000000       0.00000000     -35.31317139
2
Properties=species:S:1:pos:R:3:forces:R:3 energy=-83.43184440127817 pbc="F F F"
Hf       0.00000000       0.00000000       0.00000000       0.00000000       0.00000000      13.56438541
Hf       0.00000000       0.00000000       1.70909091       0.00000000       0.00000000     -13.56438541
2
Properties=species:S:1:pos:R:3:forces:R:3 energy=-82.99284100507428 pbc="F F F"
Hf       0.00000000       0.00000000       0.00000000       0.00000000       0.00000000       3.36214161
Hf       0.00000000       0.00000000       1.76868687       0.00000000       0.00000000      -3.36214161
2
Properties=species:S:1:pos:R:3:forces:R:3 energy=-82.80777430042079 pbc="F F F"
Hf       0.00000000       0.00000000       0.00000000       0.00000000       0.00000000       4.10065079
Hf       0.00000000       0.00000000       1.82828283       0.00000000       0.00000000      -4.10065079
2
Properties=species:S:1:pos:R:3:forces:R:3 energy=-82.44695677781422 pbc="F F F"
Hf       0.00000000       0.00000000       0.00000000       0.00000000       0.00000000       7.78581095
Hf       0.00000000       0.00000000       1.88787879       0.00000000       0.00000000      -7.78581095
2
Properties=species:S:1:pos:R:3:forces:R:3 energy=-81.94859644031534 pbc="F F F"
Hf       0.00000000       0.00000000       0.00000000       0.00000000       0.00000000       8.32491398
Hf       0.00000000       0.00000000       1.94747475       0.00000000       0.00000000      -8.32491398
2
Properties=species:S:1:pos:R:3:forces:R:3 energy=-81.49660746299101 pbc="F F F"
Hf       0.00000000       0.00000000       0.00000000       0.00000000       0.00000000       6.74863434
Hf       0.00000000       0.00000000       2.00707071       0.00000000       0.00000000      -6.74863434
2
Properties=species:S:1:pos:R:3:forces:R:3 energy=-81.14397599719638 pbc="F F F"
Hf       0.00000000       0.00000000       0.00000000       0.00000000       0.00000000       5.09677649
Hf       0.00000000       0.00000000       2.06666667       0.00000000       0.00000000      -5.09677649
2
Properties=species:S:1:pos:R:3:forces:R:3 energy=-80.89003831570156 pbc="F F F"
Hf       0.00000000       0.00000000       0.00000000       0.00000000       0.00000000       3.42247033
Hf       0.00000000       0.00000000       2.12626263       0.00000000       0.00000000      -3.42247033
2
Properties=species:S:1:pos:R:3:forces:R:3 energy=-80.73131546845329 pbc="F F F"
Hf       0.00000000       0.00000000       0.00000000       0.00000000       0.00000000       1.99314404
Hf       0.00000000       0.00000000       2.18585859       0.00000000       0.00000000      -1.99314404
2
Properties=species:S:1:pos:R:3:forces:R:3 energy=-80.63844966963231 pbc="F F F"
Hf       0.00000000       0.00000000       0.00000000       0.00000000       0.00000000       1.24709177
Hf       0.00000000       0.00000000       2.24545455       0.00000000       0.00000000      -1.24709177
2
Properties=species:S:1:pos:R:3:forces:R:3 energy=-80.57039500078392 pbc="F F F"
Hf       0.00000000       0.00000000       0.00000000       0.00000000       0.00000000       1.11032963
Hf       0.00000000       0.00000000       2.30505051       0.00000000       0.00000000      -1.11032963
2
Properties=species:S:1:pos:R:3:forces:R:3 energy=-80.50086859293378 pbc="F F F"
Hf       0.00000000       0.00000000       0.00000000       0.00000000       0.00000000       1.24220228
Hf       0.00000000       0.00000000       2.36464646       0.00000000       0.00000000      -1.24220228
2
Properties=species:S:1:pos:R:3:forces:R:3 energy=-80.42185260183311 pbc="F F F"
Hf       0.00000000       0.00000000       0.00000000       0.00000000       0.00000000       1.40480864
Hf       0.00000000       0.00000000       2.42424242       0.00000000       0.00000000      -1.40480864
2
Properties=species:S:1:pos:R:3:forces:R:3 energy=-80.33411865596604 pbc="F F F"
Hf       0.00000000       0.00000000       0.00000000       0.00000000       0.00000000       1.53580022
Hf       0.00000000       0.00000000       2.48383838       0.00000000       0.00000000      -1.53580022
2
Properties=species:S:1:pos:R:3:forces:R:3 energy=-80.23878992359619 pbc="F F F"
Hf       0.00000000       0.00000000       0.00000000       0.00000000       0.00000000       1.66689408
Hf       0.00000000       0.00000000       2.54343434       0.00000000       0.00000000      -1.66689408
2
Properties=species:S:1:pos:R:3:forces:R:3 energy=-80.13477791180465 pbc="F F F"
Hf       0.00000000       0.00000000       0.00000000       0.00000000       0.00000000       1.82968152
Hf       0.00000000       0.00000000       2.60303030       0.00000000       0.00000000      -1.82968152
2
Properties=species:S:1:pos:R:3:forces:R:3 energy=-80.02025531026969 pbc="F F F"
Hf       0.00000000       0.00000000       0.00000000       0.00000000       0.00000000       2.01395059
Hf       0.00000000       0.00000000       2.66262626       0.00000000       0.00000000      -2.01395059
2
Properties=species:S:1:pos:R:3:forces:R:3 energy=-79.895265769263 pbc="F F F"
Hf       0.00000000       0.00000000       0.00000000       0.00000000       0.00000000       2.17082739
Hf       0.00000000       0.00000000       2.72222222       0.00000000       0.00000000      -2.17082739
2
Properties=species:S:1:pos:R:3:forces:R:3 energy=-79.76317413559806 pbc="F F F"
Hf       0.00000000       0.00000000       0.00000000       0.00000000       0.00000000       2.24540687
Hf       0.00000000       0.00000000       2.78181818       0.00000000       0.00000000      -2.24540687
2
Properties=species:S:1:pos:R:3:forces:R:3 energy=-79.6294848634555 pbc="F F F"
Hf       0.00000000       0.00000000       0.00000000       0.00000000       0.00000000       2.22902703
Hf       0.00000000       0.00000000       2.84141414       0.00000000       0.00000000      -2.22902703
2
Properties=species:S:1:pos:R:3:forces:R:3 energy=-79.49830307217904 pbc="F F F"
Hf       0.00000000       0.00000000       0.00000000       0.00000000       0.00000000       2.17225862
Hf       0.00000000       0.00000000       2.90101010       0.00000000       0.00000000      -2.17225862
2
Properties=species:S:1:pos:R:3:forces:R:3 energy=-79.37018428217286 pbc="F F F"
Hf       0.00000000       0.00000000       0.00000000       0.00000000       0.00000000       2.13328791
Hf       0.00000000       0.00000000       2.96060606       0.00000000       0.00000000      -2.13328791
2
Properties=species:S:1:pos:R:3:forces:R:3 energy=-79.24334782996495 pbc="F F F"
Hf       0.00000000       0.00000000       0.00000000       0.00000000       0.00000000       2.12707186
Hf       0.00000000       0.00000000       3.02020202       0.00000000       0.00000000      -2.12707186
2
Properties=species:S:1:pos:R:3:forces:R:3 energy=-79.11658838648142 pbc="F F F"
Hf       0.00000000       0.00000000       0.00000000       0.00000000       0.00000000       2.12361360
Hf       0.00000000       0.00000000       3.07979798       0.00000000       0.00000000      -2.12361360
2
Properties=species:S:1:pos:R:3:forces:R:3 energy=-78.99110316727672 pbc="F F F"
Hf       0.00000000       0.00000000       0.00000000       0.00000000       0.00000000       2.07644749
Hf       0.00000000       0.00000000       3.13939394       0.00000000       0.00000000      -2.07644749
2
Properties=species:S:1:pos:R:3:forces:R:3 energy=-78.8707483501117 pbc="F F F"
Hf       0.00000000       0.00000000       0.00000000       0.00000000       0.00000000       1.94665766
Hf       0.00000000       0.00000000       3.19898990       0.00000000       0.00000000      -1.94665766
2
Properties=species:S:1:pos:R:3:forces:R:3 energy=-78.76114507240955 pbc="F F F"
Hf       0.00000000       0.00000000       0.00000000       0.00000000       0.00000000       1.71392190
Hf       0.00000000       0.00000000       3.25858586       0.00000000       0.00000000      -1.71392190
2
Properties=species:S:1:pos:R:3:forces:R:3 energy=-78.66837935219955 pbc="F F F"
Hf       0.00000000       0.00000000       0.00000000       0.00000000       0.00000000       1.38592219
Hf       0.00000000       0.00000000       3.31818182       0.00000000       0.00000000      -1.38592219
2
Properties=species:S:1:pos:R:3:forces:R:3 energy=-78.59693552153037 pbc="F F F"
Hf       0.00000000       0.00000000       0.00000000       0.00000000       0.00000000       1.00979161
Hf       0.00000000       0.00000000       3.37777778       0.00000000       0.00000000      -1.00979161
2
Properties=species:S:1:pos:R:3:forces:R:3 energy=-78.54729060893753 pbc="F F F"
Hf       0.00000000       0.00000000       0.00000000       0.00000000       0.00000000       0.67043722
Hf       0.00000000       0.00000000       3.43737374       0.00000000       0.00000000      -0.67043722
2
Properties=species:S:1:pos:R:3:forces:R:3 energy=-78.51443720454344 pbc="F F F"
Hf       0.00000000       0.00000000       0.00000000       0.00000000       0.00000000       0.45980644
Hf       0.00000000       0.00000000       3.49696970       0.00000000       0.00000000      -0.45980644
2
Properties=species:S:1:pos:R:3:forces:R:3 energy=-78.48886739578016 pbc="F F F"
Hf       0.00000000       0.00000000       0.00000000       0.00000000       0.00000000       0.42923486
Hf       0.00000000       0.00000000       3.55656566       0.00000000       0.00000000      -0.42923486
2
Properties=species:S:1:pos:R:3:forces:R:3 energy=-78.45999628750097 pbc="F F F"
Hf       0.00000000       0.00000000       0.00000000       0.00000000       0.00000000       0.56184274
Hf       0.00000000       0.00000000       3.61616162       0.00000000       0.00000000      -0.56184274
2
Properties=species:S:1:pos:R:3:forces:R:3 energy=-78.42006680903737 pbc="F F F"
Hf       0.00000000       0.00000000       0.00000000       0.00000000       0.00000000       0.78613585
Hf       0.00000000       0.00000000       3.67575758       0.00000000       0.00000000      -0.78613585
2
Properties=species:S:1:pos:R:3:forces:R:3 energy=-78.36621283468887 pbc="F F F"
Hf       0.00000000       0.00000000       0.00000000       0.00000000       0.00000000       1.01533234
Hf       0.00000000       0.00000000       3.73535354       0.00000000       0.00000000      -1.01533234
2
Properties=species:S:1:pos:R:3:forces:R:3 energy=-78.30029191230817 pbc="F F F"
Hf       0.00000000       0.00000000       0.00000000       0.00000000       0.00000000       1.18295932
Hf       0.00000000       0.00000000       3.79494949       0.00000000       0.00000000      -1.18295932
2
Properties=species:S:1:pos:R:3:forces:R:3 energy=-78.22705829985597 pbc="F F F"
Hf       0.00000000       0.00000000       0.00000000       0.00000000       0.00000000       1.25911975
Hf       0.00000000       0.00000000       3.85454545       0.00000000       0.00000000      -1.25911975
2
Properties=species:S:1:pos:R:3:forces:R:3 energy=-78.15195964637289 pbc="F F F"
Hf       0.00000000       0.00000000       0.00000000       0.00000000       0.00000000       1.24818301
Hf       0.00000000       0.00000000       3.91414141       0.00000000       0.00000000      -1.24818301
2
Properties=species:S:1:pos:R:3:forces:R:3 energy=-78.07950487334173 pbc="F F F"
Hf       0.00000000       0.00000000       0.00000000       0.00000000       0.00000000       1.17582822
Hf       0.00000000       0.00000000       3.97373737       0.00000000       0.00000000      -1.17582822
2
Properties=species:S:1:pos:R:3:forces:R:3 energy=-78.01239463753895 pbc="F F F"
Hf       0.00000000       0.00000000       0.00000000       0.00000000       0.00000000       1.07409036
Hf       0.00000000       0.00000000       4.03333333       0.00000000       0.00000000      -1.07409036
2
Properties=species:S:1:pos:R:3:forces:R:3 energy=-77.95151375707691 pbc="F F F"
Hf       0.00000000       0.00000000       0.00000000       0.00000000       0.00000000       0.97039914
Hf       0.00000000       0.00000000       4.09292929       0.00000000       0.00000000      -0.97039914
2
Properties=species:S:1:pos:R:3:forces:R:3 energy=-77.89641187117897 pbc="F F F"
Hf       0.00000000       0.00000000       0.00000000       0.00000000       0.00000000       0.88250691
Hf       0.00000000       0.00000000       4.15252525       0.00000000       0.00000000      -0.88250691
2
Properties=species:S:1:pos:R:3:forces:R:3 energy=-77.84586042557808 pbc="F F F"
Hf       0.00000000       0.00000000       0.00000000       0.00000000       0.00000000       0.81787199
Hf       0.00000000       0.00000000       4.21212121       0.00000000       0.00000000      -0.81787199
2
Properties=species:S:1:pos:R:3:forces:R:3 energy=-77.79847827178088 pbc="F F F"
Hf       0.00000000       0.00000000       0.00000000       0.00000000       0.00000000       0.77534670
Hf       0.00000000       0.00000000       4.27171717       0.00000000       0.00000000      -0.77534670
2
Properties=species:S:1:pos:R:3:forces:R:3 energy=-77.7531512615922 pbc="F F F"
Hf       0.00000000       0.00000000       0.00000000       0.00000000       0.00000000       0.74766183
Hf       0.00000000       0.00000000       4.33131313       0.00000000       0.00000000      -0.74766183
2
Properties=species:S:1:pos:R:3:forces:R:3 energy=-77.7092840741554 pbc="F F F"
Hf       0.00000000       0.00000000       0.00000000       0.00000000       0.00000000       0.72408086
Hf       0.00000000       0.00000000       4.39090909       0.00000000       0.00000000      -0.72408086
2
Properties=species:S:1:pos:R:3:forces:R:3 energy=-77.66699090329837 pbc="F F F"
Hf       0.00000000       0.00000000       0.00000000       0.00000000       0.00000000       0.69313967
Hf       0.00000000       0.00000000       4.45050505       0.00000000       0.00000000      -0.69313967
2
Properties=species:S:1:pos:R:3:forces:R:3 energy=-77.62700392380593 pbc="F F F"
Hf       0.00000000       0.00000000       0.00000000       0.00000000       0.00000000       0.64533120
Hf       0.00000000       0.00000000       4.51010101       0.00000000       0.00000000      -0.64533120
2
Properties=species:S:1:pos:R:3:forces:R:3 energy=-77.59051308363831 pbc="F F F"
Hf       0.00000000       0.00000000       0.00000000       0.00000000       0.00000000       0.57548833
Hf       0.00000000       0.00000000       4.56969697       0.00000000       0.00000000      -0.57548833
2
Properties=species:S:1:pos:R:3:forces:R:3 energy=-77.55883801620756 pbc="F F F"
Hf       0.00000000       0.00000000       0.00000000       0.00000000       0.00000000       0.48428711
Hf       0.00000000       0.00000000       4.62929293       0.00000000       0.00000000      -0.48428711
2
Properties=species:S:1:pos:R:3:forces:R:3 energy=-77.53309238661596 pbc="F F F"
Hf       0.00000000       0.00000000       0.00000000       0.00000000       0.00000000       0.37822869
Hf       0.00000000       0.00000000       4.68888889       0.00000000       0.00000000      -0.37822869
2
Properties=species:S:1:pos:R:3:forces:R:3 energy=-77.5138481761219 pbc="F F F"
Hf       0.00000000       0.00000000       0.00000000       0.00000000       0.00000000       0.26789919
Hf       0.00000000       0.00000000       4.74848485       0.00000000       0.00000000      -0.26789919
2
Properties=species:S:1:pos:R:3:forces:R:3 energy=-77.50100597292933 pbc="F F F"
Hf       0.00000000       0.00000000       0.00000000       0.00000000       0.00000000       0.16509989
Hf       0.00000000       0.00000000       4.80808081       0.00000000       0.00000000      -0.16509989
2
Properties=species:S:1:pos:R:3:forces:R:3 energy=-77.49381789363362 pbc="F F F"
Hf       0.00000000       0.00000000       0.00000000       0.00000000       0.00000000       0.07971376
Hf       0.00000000       0.00000000       4.86767677       0.00000000       0.00000000      -0.07971376
2
Properties=species:S:1:pos:R:3:forces:R:3 energy=-77.49104015685683 pbc="F F F"
Hf       0.00000000       0.00000000       0.00000000       0.00000000       0.00000000       0.01760444
Hf       0.00000000       0.00000000       4.92727273       0.00000000       0.00000000      -0.01760444
2
Properties=species:S:1:pos:R:3:forces:R:3 energy=-77.49123062646667 pbc="F F F"
Hf       0.00000000       0.00000000       0.00000000       0.00000000       0.00000000      -0.02002775
Hf       0.00000000       0.00000000       4.98686869       0.00000000       0.00000000       0.02002775
2
Properties=species:S:1:pos:R:3:forces:R:3 energy=-77.49299297120848 pbc="F F F"
Hf       0.00000000       0.00000000       0.00000000       0.00000000       0.00000000      -0.03581787
Hf       0.00000000       0.00000000       5.04646465       0.00000000       0.00000000       0.03581787
2
Properties=species:S:1:pos:R:3:forces:R:3 energy=-77.49515975433481 pbc="F F F"
Hf       0.00000000       0.00000000       0.00000000       0.00000000       0.00000000      -0.03465135
Hf       0.00000000       0.00000000       5.10606061       0.00000000       0.00000000       0.03465135
2
Properties=species:S:1:pos:R:3:forces:R:3 energy=-77.4968992673036 pbc="F F F"
Hf       0.00000000       0.00000000       0.00000000       0.00000000       0.00000000      -0.02209372
Hf       0.00000000       0.00000000       5.16565657       0.00000000       0.00000000       0.02209372
2
Properties=species:S:1:pos:R:3:forces:R:3 energy=-77.4976773701343 pbc="F F F"
Hf       0.00000000       0.00000000       0.00000000       0.00000000       0.00000000      -0.00355072
Hf       0.00000000       0.00000000       5.22525253       0.00000000       0.00000000       0.00355072
2
Properties=species:S:1:pos:R:3:forces:R:3 energy=-77.49730327252674 pbc="F F F"
Hf       0.00000000       0.00000000       0.00000000       0.00000000       0.00000000       0.01587977
Hf       0.00000000       0.00000000       5.28484848       0.00000000       0.00000000      -0.01587977
2
Properties=species:S:1:pos:R:3:forces:R:3 energy=-77.49584563111215 pbc="F F F"
Hf       0.00000000       0.00000000       0.00000000       0.00000000       0.00000000       0.03223092
Hf       0.00000000       0.00000000       5.34444444       0.00000000       0.00000000      -0.03223092
2
Properties=species:S:1:pos:R:3:forces:R:3 energy=-77.49351045221415 pbc="F F F"
Hf       0.00000000       0.00000000       0.00000000       0.00000000       0.00000000       0.04633987
Hf       0.00000000       0.00000000       5.40404040       0.00000000       0.00000000      -0.04633987
2
Properties=species:S:1:pos:R:3:forces:R:3 energy=-77.49022913463841 pbc="F F F"
Hf       0.00000000       0.00000000       0.00000000       0.00000000       0.00000000       0.06493622
Hf       0.00000000       0.00000000       5.46363636       0.00000000       0.00000000      -0.06493622
2
Properties=species:S:1:pos:R:3:forces:R:3 energy=-77.48571948423803 pbc="F F F"
Hf       0.00000000       0.00000000       0.00000000       0.00000000       0.00000000       0.08528485
Hf       0.00000000       0.00000000       5.52323232       0.00000000       0.00000000      -0.08528485
2
Properties=species:S:1:pos:R:3:forces:R:3 energy=-77.48037074743783 pbc="F F F"
Hf       0.00000000       0.00000000       0.00000000       0.00000000       0.00000000       0.09105195
Hf       0.00000000       0.00000000       5.58282828       0.00000000       0.00000000      -0.09105195
2
Properties=species:S:1:pos:R:3:forces:R:3 energy=-77.47517492292492 pbc="F F F"
Hf       0.00000000       0.00000000       0.00000000       0.00000000       0.00000000       0.08215284
Hf       0.00000000       0.00000000       5.64242424       0.00000000       0.00000000      -0.08215284
2
Properties=species:S:1:pos:R:3:forces:R:3 energy=-77.47051370850905 pbc="F F F"
Hf       0.00000000       0.00000000       0.00000000       0.00000000       0.00000000       0.07607052
Hf       0.00000000       0.00000000       5.70202020       0.00000000       0.00000000      -0.07607052
2
Properties=species:S:1:pos:R:3:forces:R:3 energy=-77.46590672951918 pbc="F F F"
Hf       0.00000000       0.00000000       0.00000000       0.00000000       0.00000000       0.07914996
Hf       0.00000000       0.00000000       5.76161616       0.00000000       0.00000000      -0.07914996
2
Properties=species:S:1:pos:R:3:forces:R:3 energy=-77.46129326282956 pbc="F F F"
Hf       0.00000000       0.00000000       0.00000000       0.00000000       0.00000000       0.07185157
Hf       0.00000000       0.00000000       5.82121212       0.00000000       0.00000000      -0.07185157
2
Properties=species:S:1:pos:R:3:forces:R:3 energy=-77.4577723039683 pbc="F F F"
Hf       0.00000000       0.00000000       0.00000000       0.00000000       0.00000000       0.04456160
Hf       0.00000000       0.00000000       5.88080808       0.00000000       0.00000000      -0.04456160
2
Properties=species:S:1:pos:R:3:forces:R:3 energy=-77.4560003784268 pbc="F F F"
Hf       0.00000000       0.00000000       0.00000000       0.00000000       0.00000000       0.01588365
Hf       0.00000000       0.00000000       5.94040404       0.00000000       0.00000000      -0.01588365
2
Properties=species:S:1:pos:R:3:forces:R:3 energy=-77.4555125334659 pbc="F F F"
Hf       0.00000000       0.00000000       0.00000000       0.00000000       0.00000000       0.00438702
Hf       0.00000000       0.00000000       6.00000000       0.00000000       0.00000000      -0.00438702
