2
Properties=species:S:1:pos:R:3:forces:R:3 energy=31299.448971109134 pbc="F F F"
Ho       0.00000000       0.00000000       0.00000000       0.00000000       0.00000000 -1664223.87500000
Ho       0.00000000       0.00000000       0.10000000       0.00000000       0.00000000 1664223.87500000
2
Properties=species:S:1:pos:R:3:forces:R:3 energy=-16701.896732015866 pbc="F F F"
Ho       0.00000000       0.00000000       0.00000000       0.00000000       0.00000000 -345322.37500000
Ho       0.00000000       0.00000000       0.15959596       0.00000000       0.00000000  345322.37500000
2
Properties=species:S:1:pos:R:3:forces:R:3 energy=-28283.011966390866 pbc="F F F"
Ho       0.00000000       0.00000000       0.00000000       0.00000000       0.00000000  -98506.10937500
Ho       0.00000000       0.00000000       0.21919192       0.00000000       0.00000000   98506.10937500
2
Properties=species:S:1:pos:R:3:forces:R:3 energy=-31561.760013265866 pbc="F F F"
Ho       0.00000000       0.00000000       0.00000000       0.00000000       0.00000000  -23083.08007812
Ho       0.00000000       0.00000000       0.27878788       0.00000000       0.00000000   23083.08007812
2
Properties=species:S:1:pos:R:3:forces:R:3 energy=-31737.492435140866 pbc="F F F"
Ho       0.00000000       0.00000000       0.00000000       0.00000000       0.00000000   14523.01757812
Ho       0.00000000       0.00000000       0.33838384       0.00000000       0.00000000  -14523.01757812
2
Properties=species:S:1:pos:R:3:forces:R:3 energy=-29979.013919515866 pbc="F F F"
Ho       0.00000000       0.00000000       0.00000000       0.00000000       0.00000000   44053.86718750
Ho       0.00000000       0.00000000       0.39797980       0.00000000       0.00000000  -44053.86718750
2
Properties=species:S:1:pos:R:3:forces:R:3 energy=-26518.517825762698 pbc="F F F"
Ho       0.00000000       0.00000000       0.00000000       0.00000000       0.00000000   71703.88281250
Ho       0.00000000       0.00000000       0.45757576       0.00000000       0.00000000  -71703.88281250
2
Properties=species:S:1:pos:R:3:forces:R:3 energy=-21526.01196638453 pbc="F F F"
Ho       0.00000000       0.00000000       0.00000000       0.00000000       0.00000000   94483.72656250
Ho       0.00000000       0.00000000       0.51717172       0.00000000       0.00000000  -94483.72656250
2
Properties=species:S:1:pos:R:3:forces:R:3 energy=-15504.453372634529 pbc="F F F"
Ho       0.00000000       0.00000000       0.00000000       0.00000000       0.00000000  104822.63281250
Ho       0.00000000       0.00000000       0.57676768       0.00000000       0.00000000 -104822.63281250
2
Properties=species:S:1:pos:R:3:forces:R:3 energy=-9422.557864815693 pbc="F F F"
Ho       0.00000000       0.00000000       0.00000000       0.00000000       0.00000000   94780.54687500
Ho       0.00000000       0.00000000       0.63636364       0.00000000       0.00000000  -94780.54687500
2
Properties=species:S:1:pos:R:3:forces:R:3 energy=-4513.314212468776 pbc="F F F"
Ho       0.00000000       0.00000000       0.00000000       0.00000000       0.00000000   66483.10937500
Ho       0.00000000       0.00000000       0.69595960       0.00000000       0.00000000  -66483.10937500
2
Properties=species:S:1:pos:R:3:forces:R:3 energy=-1530.9357944905223 pbc="F F F"
Ho       0.00000000       0.00000000       0.00000000       0.00000000       0.00000000   33832.57031250
Ho       0.00000000       0.00000000       0.75555556       0.00000000       0.00000000  -33832.57031250
2
Properties=species:S:1:pos:R:3:forces:R:3 energy=-365.9910007735113 pbc="F F F"
Ho       0.00000000       0.00000000       0.00000000       0.00000000       0.00000000    5814.16455078
Ho       0.00000000       0.00000000       0.81515152       0.00000000       0.00000000   -5814.16455078
2
Properties=species:S:1:pos:R:3:forces:R:3 energy=-51.16241798766465 pbc="F F F"
Ho       0.00000000       0.00000000       0.00000000       0.00000000       0.00000000    5187.43750000
Ho       0.00000000       0.00000000       0.87474747       0.00000000       0.00000000   -5187.43750000
2
Properties=species:S:1:pos:R:3:forces:R:3 energy=21.301151685126857 pbc="F F F"
Ho       0.00000000       0.00000000       0.00000000       0.00000000       0.00000000    -971.03546143
Ho       0.00000000       0.00000000       0.93434343       0.00000000       0.00000000     971.03546143
2
Properties=species:S:1:pos:R:3:forces:R:3 energy=-18.98764374488286 pbc="F F F"
Ho       0.00000000       0.00000000       0.00000000       0.00000000       0.00000000    -494.13604736
Ho       0.00000000       0.00000000       0.99393939       0.00000000       0.00000000     494.13604736
2
Properties=species:S:1:pos:R:3:forces:R:3 energy=-28.565070601430275 pbc="F F F"
Ho       0.00000000       0.00000000       0.00000000       0.00000000       0.00000000     -75.21790314
Ho       0.00000000       0.00000000       1.05353535       0.00000000       0.00000000      75.21790314
2
Properties=species:S:1:pos:R:3:forces:R:3 energy=-33.134951964611524 pbc="F F F"
Ho       0.00000000       0.00000000       0.00000000       0.00000000       0.00000000     -74.59690857
Ho       0.00000000       0.00000000       1.11313131       0.00000000       0.00000000      74.59690857
2
Properties=species:S:1:pos:R:3:forces:R:3 energy=-37.55781105830357 pbc="F F F"
Ho       0.00000000       0.00000000       0.00000000       0.00000000       0.00000000     -75.68049622
Ho       0.00000000       0.00000000       1.17272727       0.00000000       0.00000000      75.68049622
2
Properties=species:S:1:pos:R:3:forces:R:3 energy=-42.18825068989147 pbc="F F F"
Ho       0.00000000       0.00000000       0.00000000       0.00000000       0.00000000     -78.92212677
Ho       0.00000000       0.00000000       1.23232323       0.00000000       0.00000000      78.92212677
2
Properties=species:S:1:pos:R:3:forces:R:3 energy=-46.87370966529543 pbc="F F F"
Ho       0.00000000       0.00000000       0.00000000       0.00000000       0.00000000     -77.69414520
Ho       0.00000000       0.00000000       1.29191919       0.00000000       0.00000000      77.69414520
2
Properties=species:S:1:pos:R:3:forces:R:3 energy=-51.367373247228784 pbc="F F F"
Ho       0.00000000       0.00000000       0.00000000       0.00000000       0.00000000     -72.34090424
Ho       0.00000000       0.00000000       1.35151515       0.00000000       0.00000000      72.34090424
2
Properties=species:S:1:pos:R:3:forces:R:3 energy=-55.412386418369564 pbc="F F F"
Ho       0.00000000       0.00000000       0.00000000       0.00000000       0.00000000     -62.85102081
Ho       0.00000000       0.00000000       1.41111111       0.00000000       0.00000000      62.85102081
2
Properties=species:S:1:pos:R:3:forces:R:3 energy=-58.809049767358836 pbc="F F F"
Ho       0.00000000       0.00000000       0.00000000       0.00000000       0.00000000     -50.82506180
Ho       0.00000000       0.00000000       1.47070707       0.00000000       0.00000000      50.82506180
2
Properties=species:S:1:pos:R:3:forces:R:3 energy=-61.445905453650454 pbc="F F F"
Ho       0.00000000       0.00000000       0.00000000       0.00000000       0.00000000     -37.61276245
Ho       0.00000000       0.00000000       1.53030303       0.00000000       0.00000000      37.61276245
2
Properties=species:S:1:pos:R:3:forces:R:3 energy=-63.31081510420955 pbc="F F F"
Ho       0.00000000       0.00000000       0.00000000       0.00000000       0.00000000     -25.34129524
Ho       0.00000000       0.00000000       1.58989899       0.00000000       0.00000000      25.34129524
2
Properties=species:S:1:pos:R:3:forces:R:3 energy=-64.52794708968965 pbc="F F F"
Ho       0.00000000       0.00000000       0.00000000       0.00000000       0.00000000     -16.10003853
Ho       0.00000000       0.00000000       1.64949495       0.00000000       0.00000000      16.10003853
2
Properties=species:S:1:pos:R:3:forces:R:3 energy=-65.29875175482331 pbc="F F F"
Ho       0.00000000       0.00000000       0.00000000       0.00000000       0.00000000     -10.28581810
Ho       0.00000000       0.00000000       1.70909091       0.00000000       0.00000000      10.28581810
2
Properties=species:S:1:pos:R:3:forces:R:3 energy=-65.80478577276031 pbc="F F F"
Ho       0.00000000       0.00000000       0.00000000       0.00000000       0.00000000      -7.02933693
Ho       0.00000000       0.00000000       1.76868687       0.00000000       0.00000000       7.02933693
2
Properties=species:S:1:pos:R:3:forces:R:3 energy=-66.16692161888447 pbc="F F F"
Ho       0.00000000       0.00000000       0.00000000       0.00000000       0.00000000      -5.31568813
Ho       0.00000000       0.00000000       1.82828283       0.00000000       0.00000000       5.31568813
2
Properties=species:S:1:pos:R:3:forces:R:3 energy=-66.45641782227855 pbc="F F F"
Ho       0.00000000       0.00000000       0.00000000       0.00000000       0.00000000      -4.51869106
Ho       0.00000000       0.00000000       1.88787879       0.00000000       0.00000000       4.51869106
2
Properties=species:S:1:pos:R:3:forces:R:3 energy=-66.71616680415121 pbc="F F F"
Ho       0.00000000       0.00000000       0.00000000       0.00000000       0.00000000      -4.25789118
Ho       0.00000000       0.00000000       1.94747475       0.00000000       0.00000000       4.25789118
2
Properties=species:S:1:pos:R:3:forces:R:3 energy=-66.96784365219098 pbc="F F F"
Ho       0.00000000       0.00000000       0.00000000       0.00000000       0.00000000      -4.19942427
Ho       0.00000000       0.00000000       2.00707071       0.00000000       0.00000000       4.19942427
2
Properties=species:S:1:pos:R:3:forces:R:3 energy=-67.21664394289192 pbc="F F F"
Ho       0.00000000       0.00000000       0.00000000       0.00000000       0.00000000      -4.14330387
Ho       0.00000000       0.00000000       2.06666667       0.00000000       0.00000000       4.14330387
2
Properties=species:S:1:pos:R:3:forces:R:3 energy=-67.46075185184523 pbc="F F F"
Ho       0.00000000       0.00000000       0.00000000       0.00000000       0.00000000      -4.04155684
Ho       0.00000000       0.00000000       2.12626263       0.00000000       0.00000000       4.04155684
2
Properties=species:S:1:pos:R:3:forces:R:3 energy=-67.6976267494903 pbc="F F F"
Ho       0.00000000       0.00000000       0.00000000       0.00000000       0.00000000      -3.90228963
Ho       0.00000000       0.00000000       2.18585859       0.00000000       0.00000000       3.90228963
2
Properties=species:S:1:pos:R:3:forces:R:3 energy=-67.92520865495418 pbc="F F F"
Ho       0.00000000       0.00000000       0.00000000       0.00000000       0.00000000      -3.72873378
Ho       0.00000000       0.00000000       2.24545455       0.00000000       0.00000000       3.72873378
2
Properties=species:S:1:pos:R:3:forces:R:3 energy=-68.1410713732586 pbc="F F F"
Ho       0.00000000       0.00000000       0.00000000       0.00000000       0.00000000      -3.50543904
Ho       0.00000000       0.00000000       2.30505051       0.00000000       0.00000000       3.50543904
2
Properties=species:S:1:pos:R:3:forces:R:3 energy=-68.34171295846075 pbc="F F F"
Ho       0.00000000       0.00000000       0.00000000       0.00000000       0.00000000      -3.21693397
Ho       0.00000000       0.00000000       2.36464646       0.00000000       0.00000000       3.21693397
2
Properties=species:S:1:pos:R:3:forces:R:3 energy=-68.52347125050045 pbc="F F F"
Ho       0.00000000       0.00000000       0.00000000       0.00000000       0.00000000      -2.87809157
Ho       0.00000000       0.00000000       2.42424242       0.00000000       0.00000000       2.87809157
2
Properties=species:S:1:pos:R:3:forces:R:3 energy=-68.68481266821705 pbc="F F F"
Ho       0.00000000       0.00000000       0.00000000       0.00000000       0.00000000      -2.54300833
Ho       0.00000000       0.00000000       2.48383838       0.00000000       0.00000000       2.54300833
2
Properties=species:S:1:pos:R:3:forces:R:3 energy=-68.82804121906686 pbc="F F F"
Ho       0.00000000       0.00000000       0.00000000       0.00000000       0.00000000      -2.28058529
Ho       0.00000000       0.00000000       2.54343434       0.00000000       0.00000000       2.28058529
2
Properties=species:S:1:pos:R:3:forces:R:3 energy=-68.95902385675929 pbc="F F F"
Ho       0.00000000       0.00000000       0.00000000       0.00000000       0.00000000      -2.13612056
Ho       0.00000000       0.00000000       2.60303030       0.00000000       0.00000000       2.13612056
2
Properties=species:S:1:pos:R:3:forces:R:3 energy=-69.08497025775605 pbc="F F F"
Ho       0.00000000       0.00000000       0.00000000       0.00000000       0.00000000      -2.10692048
Ho       0.00000000       0.00000000       2.66262626       0.00000000       0.00000000       2.10692048
2
Properties=species:S:1:pos:R:3:forces:R:3 energy=-69.21151846225234 pbc="F F F"
Ho       0.00000000       0.00000000       0.00000000       0.00000000       0.00000000      -2.14605331
Ho       0.00000000       0.00000000       2.72222222       0.00000000       0.00000000       2.14605331
2
Properties=species:S:1:pos:R:3:forces:R:3 energy=-69.34078935956451 pbc="F F F"
Ho       0.00000000       0.00000000       0.00000000       0.00000000       0.00000000      -2.18703485
Ho       0.00000000       0.00000000       2.78181818       0.00000000       0.00000000       2.18703485
2
Properties=species:S:1:pos:R:3:forces:R:3 energy=-69.4710662218814 pbc="F F F"
Ho       0.00000000       0.00000000       0.00000000       0.00000000       0.00000000      -2.17213988
Ho       0.00000000       0.00000000       2.84141414       0.00000000       0.00000000       2.17213988
2
Properties=species:S:1:pos:R:3:forces:R:3 energy=-69.59796969437869 pbc="F F F"
Ho       0.00000000       0.00000000       0.00000000       0.00000000       0.00000000      -2.07146382
Ho       0.00000000       0.00000000       2.90101010       0.00000000       0.00000000       2.07146382
2
Properties=species:S:1:pos:R:3:forces:R:3 energy=-69.71629639060193 pbc="F F F"
Ho       0.00000000       0.00000000       0.00000000       0.00000000       0.00000000      -1.88746345
Ho       0.00000000       0.00000000       2.96060606       0.00000000       0.00000000       1.88746345
2
Properties=species:S:1:pos:R:3:forces:R:3 energy=-69.82178899436106 pbc="F F F"
Ho       0.00000000       0.00000000       0.00000000       0.00000000       0.00000000      -1.64574289
Ho       0.00000000       0.00000000       3.02020202       0.00000000       0.00000000       1.64574289
2
Properties=species:S:1:pos:R:3:forces:R:3 energy=-69.91195256693146 pbc="F F F"
Ho       0.00000000       0.00000000       0.00000000       0.00000000       0.00000000      -1.37839341
Ho       0.00000000       0.00000000       3.07979798       0.00000000       0.00000000       1.37839341
2
Properties=species:S:1:pos:R:3:forces:R:3 energy=-69.98605453755053 pbc="F F F"
Ho       0.00000000       0.00000000       0.00000000       0.00000000       0.00000000      -1.10951459
Ho       0.00000000       0.00000000       3.13939394       0.00000000       0.00000000       1.10951459
2
Properties=species:S:1:pos:R:3:forces:R:3 energy=-70.04439231005296 pbc="F F F"
Ho       0.00000000       0.00000000       0.00000000       0.00000000       0.00000000      -0.84985423
Ho       0.00000000       0.00000000       3.19898990       0.00000000       0.00000000       0.84985423
2
Properties=species:S:1:pos:R:3:forces:R:3 energy=-70.08756842604087 pbc="F F F"
Ho       0.00000000       0.00000000       0.00000000       0.00000000       0.00000000      -0.60082406
Ho       0.00000000       0.00000000       3.25858586       0.00000000       0.00000000       0.60082406
2
Properties=species:S:1:pos:R:3:forces:R:3 energy=-70.11621596686923 pbc="F F F"
Ho       0.00000000       0.00000000       0.00000000       0.00000000       0.00000000      -0.36254099
Ho       0.00000000       0.00000000       3.31818182       0.00000000       0.00000000       0.36254099
2
Properties=species:S:1:pos:R:3:forces:R:3 energy=-70.13107477789917 pbc="F F F"
Ho       0.00000000       0.00000000       0.00000000       0.00000000       0.00000000      -0.13952538
Ho       0.00000000       0.00000000       3.37777778       0.00000000       0.00000000       0.13952538
2
Properties=species:S:1:pos:R:3:forces:R:3 energy=-70.1333272157102 pbc="F F F"
Ho       0.00000000       0.00000000       0.00000000       0.00000000       0.00000000       0.05896365
Ho       0.00000000       0.00000000       3.43737374       0.00000000       0.00000000      -0.05896365
2
Properties=species:S:1:pos:R:3:forces:R:3 energy=-70.12473545819496 pbc="F F F"
Ho       0.00000000       0.00000000       0.00000000       0.00000000       0.00000000       0.22295524
Ho       0.00000000       0.00000000       3.49696970       0.00000000       0.00000000      -0.22295524
2
Properties=species:S:1:pos:R:3:forces:R:3 energy=-70.10755757805153 pbc="F F F"
Ho       0.00000000       0.00000000       0.00000000       0.00000000       0.00000000       0.34672123
Ho       0.00000000       0.00000000       3.55656566       0.00000000       0.00000000      -0.34672123
2
Properties=species:S:1:pos:R:3:forces:R:3 energy=-70.08418900242206 pbc="F F F"
Ho       0.00000000       0.00000000       0.00000000       0.00000000       0.00000000       0.43164840
Ho       0.00000000       0.00000000       3.61616162       0.00000000       0.00000000      -0.43164840
2
Properties=species:S:1:pos:R:3:forces:R:3 energy=-70.05672755504128 pbc="F F F"
Ho       0.00000000       0.00000000       0.00000000       0.00000000       0.00000000       0.48570919
Ho       0.00000000       0.00000000       3.67575758       0.00000000       0.00000000      -0.48570919
2
Properties=species:S:1:pos:R:3:forces:R:3 energy=-70.02667598587733 pbc="F F F"
Ho       0.00000000       0.00000000       0.00000000       0.00000000       0.00000000       0.52036411
Ho       0.00000000       0.00000000       3.73535354       0.00000000       0.00000000      -0.52036411
2
Properties=species:S:1:pos:R:3:forces:R:3 energy=-69.99486564234054 pbc="F F F"
Ho       0.00000000       0.00000000       0.00000000       0.00000000       0.00000000       0.54669541
Ho       0.00000000       0.00000000       3.79494949       0.00000000       0.00000000      -0.54669541
2
Properties=species:S:1:pos:R:3:forces:R:3 energy=-69.96152512433066 pbc="F F F"
Ho       0.00000000       0.00000000       0.00000000       0.00000000       0.00000000       0.57258344
Ho       0.00000000       0.00000000       3.85454545       0.00000000       0.00000000      -0.57258344
2
Properties=species:S:1:pos:R:3:forces:R:3 energy=-69.92655496144698 pbc="F F F"
Ho       0.00000000       0.00000000       0.00000000       0.00000000       0.00000000       0.60157204
Ho       0.00000000       0.00000000       3.91414141       0.00000000       0.00000000      -0.60157204
2
Properties=species:S:1:pos:R:3:forces:R:3 energy=-69.8897641178831 pbc="F F F"
Ho       0.00000000       0.00000000       0.00000000       0.00000000       0.00000000       0.63327950
Ho       0.00000000       0.00000000       3.97373737       0.00000000       0.00000000      -0.63327950
2
Properties=species:S:1:pos:R:3:forces:R:3 energy=-69.85107598291151 pbc="F F F"
Ho       0.00000000       0.00000000       0.00000000       0.00000000       0.00000000       0.66487074
Ho       0.00000000       0.00000000       4.03333333       0.00000000       0.00000000      -0.66487074
2
Properties=species:S:1:pos:R:3:forces:R:3 energy=-69.81058941871107 pbc="F F F"
Ho       0.00000000       0.00000000       0.00000000       0.00000000       0.00000000       0.69302952
Ho       0.00000000       0.00000000       4.09292929       0.00000000       0.00000000      -0.69302952
2
Properties=species:S:1:pos:R:3:forces:R:3 energy=-69.76857874769577 pbc="F F F"
Ho       0.00000000       0.00000000       0.00000000       0.00000000       0.00000000       0.71560973
Ho       0.00000000       0.00000000       4.15252525       0.00000000       0.00000000      -0.71560973
2
Properties=species:S:1:pos:R:3:forces:R:3 energy=-69.72540982917484 pbc="F F F"
Ho       0.00000000       0.00000000       0.00000000       0.00000000       0.00000000       0.73227304
Ho       0.00000000       0.00000000       4.21212121       0.00000000       0.00000000      -0.73227304
2
Properties=species:S:1:pos:R:3:forces:R:3 energy=-69.68139512303144 pbc="F F F"
Ho       0.00000000       0.00000000       0.00000000       0.00000000       0.00000000       0.74409199
Ho       0.00000000       0.00000000       4.27171717       0.00000000       0.00000000      -0.74409199
2
Properties=species:S:1:pos:R:3:forces:R:3 energy=-69.63678603498556 pbc="F F F"
Ho       0.00000000       0.00000000       0.00000000       0.00000000       0.00000000       0.75252008
Ho       0.00000000       0.00000000       4.33131313       0.00000000       0.00000000      -0.75252008
2
Properties=species:S:1:pos:R:3:forces:R:3 energy=-69.59175766730841 pbc="F F F"
Ho       0.00000000       0.00000000       0.00000000       0.00000000       0.00000000       0.75833988
Ho       0.00000000       0.00000000       4.39090909       0.00000000       0.00000000      -0.75833988
2
Properties=species:S:1:pos:R:3:forces:R:3 energy=-69.54646223725543 pbc="F F F"
Ho       0.00000000       0.00000000       0.00000000       0.00000000       0.00000000       0.76107609
Ho       0.00000000       0.00000000       4.45050505       0.00000000       0.00000000      -0.76107609
2
Properties=species:S:1:pos:R:3:forces:R:3 energy=-69.50113588542187 pbc="F F F"
Ho       0.00000000       0.00000000       0.00000000       0.00000000       0.00000000       0.75897402
Ho       0.00000000       0.00000000       4.51010101       0.00000000       0.00000000      -0.75897402
2
Properties=species:S:1:pos:R:3:forces:R:3 energy=-69.45614442993532 pbc="F F F"
Ho       0.00000000       0.00000000       0.00000000       0.00000000       0.00000000       0.74952644
Ho       0.00000000       0.00000000       4.56969697       0.00000000       0.00000000      -0.74952644
2
Properties=species:S:1:pos:R:3:forces:R:3 energy=-69.41199103703181 pbc="F F F"
Ho       0.00000000       0.00000000       0.00000000       0.00000000       0.00000000       0.73035294
Ho       0.00000000       0.00000000       4.62929293       0.00000000       0.00000000      -0.73035294
2
Properties=species:S:1:pos:R:3:forces:R:3 energy=-69.36931620204895 pbc="F F F"
Ho       0.00000000       0.00000000       0.00000000       0.00000000       0.00000000       0.70007831
Ho       0.00000000       0.00000000       4.68888889       0.00000000       0.00000000      -0.70007831
2
Properties=species:S:1:pos:R:3:forces:R:3 energy=-69.32876804971889 pbc="F F F"
Ho       0.00000000       0.00000000       0.00000000       0.00000000       0.00000000       0.65893793
Ho       0.00000000       0.00000000       4.74848485       0.00000000       0.00000000      -0.65893793
2
Properties=species:S:1:pos:R:3:forces:R:3 energy=-69.29094894107786 pbc="F F F"
Ho       0.00000000       0.00000000       0.00000000       0.00000000       0.00000000       0.60889339
Ho       0.00000000       0.00000000       4.80808081       0.00000000       0.00000000      -0.60889339
2
Properties=species:S:1:pos:R:3:forces:R:3 energy=-69.25630102938044 pbc="F F F"
Ho       0.00000000       0.00000000       0.00000000       0.00000000       0.00000000       0.55321079
Ho       0.00000000       0.00000000       4.86767677       0.00000000       0.00000000      -0.55321079
2
Properties=species:S:1:pos:R:3:forces:R:3 energy=-69.22504522494322 pbc="F F F"
Ho       0.00000000       0.00000000       0.00000000       0.00000000       0.00000000       0.49576375
Ho       0.00000000       0.00000000       4.92727273       0.00000000       0.00000000      -0.49576375
2
Properties=species:S:1:pos:R:3:forces:R:3 energy=-69.19717358158945 pbc="F F F"
Ho       0.00000000       0.00000000       0.00000000       0.00000000       0.00000000       0.44021109
Ho       0.00000000       0.00000000       4.98686869       0.00000000       0.00000000      -0.44021109
2
Properties=species:S:1:pos:R:3:forces:R:3 energy=-69.17247981105936 pbc="F F F"
Ho       0.00000000       0.00000000       0.00000000       0.00000000       0.00000000       0.38944873
Ho       0.00000000       0.00000000       5.04646465       0.00000000       0.00000000      -0.38944873
2
Properties=species:S:1:pos:R:3:forces:R:3 energy=-69.15062031341456 pbc="F F F"
Ho       0.00000000       0.00000000       0.00000000       0.00000000       0.00000000       0.34542081
Ho       0.00000000       0.00000000       5.10606061       0.00000000       0.00000000      -0.34542081
2
Properties=species:S:1:pos:R:3:forces:R:3 energy=-69.13115234460172 pbc="F F F"
Ho       0.00000000       0.00000000       0.00000000       0.00000000       0.00000000       0.30927017
Ho       0.00000000       0.00000000       5.16565657       0.00000000       0.00000000      -0.30927017
2
Properties=species:S:1:pos:R:3:forces:R:3 energy=-69.11358741904625 pbc="F F F"
Ho       0.00000000       0.00000000       0.00000000       0.00000000       0.00000000       0.28161424
Ho       0.00000000       0.00000000       5.22525253       0.00000000       0.00000000      -0.28161424
2
Properties=species:S:1:pos:R:3:forces:R:3 energy=-69.09741419150049 pbc="F F F"
Ho       0.00000000       0.00000000       0.00000000       0.00000000       0.00000000       0.26268598
Ho       0.00000000       0.00000000       5.28484848       0.00000000       0.00000000      -0.26268598
2
Properties=species:S:1:pos:R:3:forces:R:3 energy=-69.08211374275902 pbc="F F F"
Ho       0.00000000       0.00000000       0.00000000       0.00000000       0.00000000       0.25183517
Ho       0.00000000       0.00000000       5.34444444       0.00000000       0.00000000      -0.25183517
2
Properties=species:S:1:pos:R:3:forces:R:3 energy=-69.06731214695864 pbc="F F F"
Ho       0.00000000       0.00000000       0.00000000       0.00000000       0.00000000       0.24502887
Ho       0.00000000       0.00000000       5.40404040       0.00000000       0.00000000      -0.24502887
2
Properties=species:S:1:pos:R:3:forces:R:3 energy=-69.05301700815129 pbc="F F F"
Ho       0.00000000       0.00000000       0.00000000       0.00000000       0.00000000       0.23265696
Ho       0.00000000       0.00000000       5.46363636       0.00000000       0.00000000      -0.23265696
2
Properties=species:S:1:pos:R:3:forces:R:3 energy=-69.03982344128518 pbc="F F F"
Ho       0.00000000       0.00000000       0.00000000       0.00000000       0.00000000       0.20892969
Ho       0.00000000       0.00000000       5.52323232       0.00000000       0.00000000      -0.20892969
2
Properties=species:S:1:pos:R:3:forces:R:3 energy=-69.02824270766072 pbc="F F F"
Ho       0.00000000       0.00000000       0.00000000       0.00000000       0.00000000       0.17859726
Ho       0.00000000       0.00000000       5.58282828       0.00000000       0.00000000      -0.17859726
2
Properties=species:S:1:pos:R:3:forces:R:3 energy=-69.01865641005304 pbc="F F F"
Ho       0.00000000       0.00000000       0.00000000       0.00000000       0.00000000       0.14194855
Ho       0.00000000       0.00000000       5.64242424       0.00000000       0.00000000      -0.14194855
2
Properties=species:S:1:pos:R:3:forces:R:3 energy=-69.0115225307137 pbc="F F F"
Ho       0.00000000       0.00000000       0.00000000       0.00000000       0.00000000       0.09547294
Ho       0.00000000       0.00000000       5.70202020       0.00000000       0.00000000      -0.09547294
2
Properties=species:S:1:pos:R:3:forces:R:3 energy=-69.00737539969262 pbc="F F F"
Ho       0.00000000       0.00000000       0.00000000       0.00000000       0.00000000       0.04506303
Ho       0.00000000       0.00000000       5.76161616       0.00000000       0.00000000      -0.04506303
2
Properties=species:S:1:pos:R:3:forces:R:3 energy=-69.00576522166942 pbc="F F F"
Ho       0.00000000       0.00000000       0.00000000       0.00000000       0.00000000       0.01329259
Ho       0.00000000       0.00000000       5.82121212       0.00000000       0.00000000      -0.01329259
2
Properties=species:S:1:pos:R:3:forces:R:3 energy=-69.00530385865629 pbc="F F F"
Ho       0.00000000       0.00000000       0.00000000       0.00000000       0.00000000       0.00505235
Ho       0.00000000       0.00000000       5.88080808       0.00000000       0.00000000      -0.00505235
2
Properties=species:S:1:pos:R:3:forces:R:3 energy=-69.00499996136968 pbc="F F F"
Ho       0.00000000       0.00000000       0.00000000       0.00000000       0.00000000       0.00574189
Ho       0.00000000       0.00000000       5.94040404       0.00000000       0.00000000      -0.00574189
2
Properties=species:S:1:pos:R:3:forces:R:3 energy=-69.00461756344451 pbc="F F F"
Ho       0.00000000       0.00000000       0.00000000       0.00000000       0.00000000       0.00675177
Ho       0.00000000       0.00000000       6.00000000       0.00000000       0.00000000      -0.00675177
