2
Properties=species:S:1:pos:R:3:forces:R:3 energy=-22365.732669515866 pbc="F F F"
Ho       0.00000000       0.00000000       0.00000000       0.00000000       0.00000000 -220602.29687500
Ho       0.00000000       0.00000000       0.18000000       0.00000000       0.00000000  220602.29687500
2
Properties=species:S:1:pos:R:3:forces:R:3 energy=-29870.707278890866 pbc="F F F"
Ho       0.00000000       0.00000000       0.00000000       0.00000000       0.00000000  -65465.32812500
Ho       0.00000000       0.00000000       0.23878788       0.00000000       0.00000000   65465.32812500
2
Properties=species:S:1:pos:R:3:forces:R:3 energy=-31862.808841390866 pbc="F F F"
Ho       0.00000000       0.00000000       0.00000000       0.00000000       0.00000000   -9347.13281250
Ho       0.00000000       0.00000000       0.29757576       0.00000000       0.00000000    9347.13281250
2
Properties=species:S:1:pos:R:3:forces:R:3 energy=-31392.976810140866 pbc="F F F"
Ho       0.00000000       0.00000000       0.00000000       0.00000000       0.00000000   23751.93359375
Ho       0.00000000       0.00000000       0.35636364       0.00000000       0.00000000  -23751.93359375
2
Properties=species:S:1:pos:R:3:forces:R:3 energy=-29152.326419515866 pbc="F F F"
Ho       0.00000000       0.00000000       0.00000000       0.00000000       0.00000000   52219.73046875
Ho       0.00000000       0.00000000       0.41515152       0.00000000       0.00000000  -52219.73046875
2
Properties=species:S:1:pos:R:3:forces:R:3 energy=-25287.297122637698 pbc="F F F"
Ho       0.00000000       0.00000000       0.00000000       0.00000000       0.00000000   78714.19531250
Ho       0.00000000       0.00000000       0.47393939       0.00000000       0.00000000  -78714.19531250
2
Properties=species:S:1:pos:R:3:forces:R:3 energy=-20021.79126325953 pbc="F F F"
Ho       0.00000000       0.00000000       0.00000000       0.00000000       0.00000000   98726.10156250
Ho       0.00000000       0.00000000       0.53272727       0.00000000       0.00000000  -98726.10156250
2
Properties=species:S:1:pos:R:3:forces:R:3 energy=-13959.065677322029 pbc="F F F"
Ho       0.00000000       0.00000000       0.00000000       0.00000000       0.00000000  104547.32031250
Ho       0.00000000       0.00000000       0.59151515       0.00000000       0.00000000 -104547.32031250
2
Properties=species:S:1:pos:R:3:forces:R:3 energy=-8133.512942940693 pbc="F F F"
Ho       0.00000000       0.00000000       0.00000000       0.00000000       0.00000000   89910.08593750
Ho       0.00000000       0.00000000       0.65030303       0.00000000       0.00000000  -89910.08593750
2
Properties=species:S:1:pos:R:3:forces:R:3 energy=-3687.160648012483 pbc="F F F"
Ho       0.00000000       0.00000000       0.00000000       0.00000000       0.00000000   59309.95312500
Ho       0.00000000       0.00000000       0.70909091       0.00000000       0.00000000  -59309.95312500
2
Properties=species:S:1:pos:R:3:forces:R:3 energy=-1152.047732963917 pbc="F F F"
Ho       0.00000000       0.00000000       0.00000000       0.00000000       0.00000000   27738.85156250
Ho       0.00000000       0.00000000       0.76787879       0.00000000       0.00000000  -27738.85156250
2
Properties=species:S:1:pos:R:3:forces:R:3 energy=-304.5966526258122 pbc="F F F"
Ho       0.00000000       0.00000000       0.00000000       0.00000000       0.00000000    4813.63964844
Ho       0.00000000       0.00000000       0.82666667       0.00000000       0.00000000   -4813.63964844
2
Properties=species:S:1:pos:R:3:forces:R:3 energy=-3.311580273809469 pbc="F F F"
Ho       0.00000000       0.00000000       0.00000000       0.00000000       0.00000000    4207.68212891
Ho       0.00000000       0.00000000       0.88545455       0.00000000       0.00000000   -4207.68212891
2
Properties=species:S:1:pos:R:3:forces:R:3 energy=12.018894611384377 pbc="F F F"
Ho       0.00000000       0.00000000       0.00000000       0.00000000       0.00000000    -895.92639160
Ho       0.00000000       0.00000000       0.94424242       0.00000000       0.00000000     895.92639160
2
Properties=species:S:1:pos:R:3:forces:R:3 energy=-23.229079740018065 pbc="F F F"
Ho       0.00000000       0.00000000       0.00000000       0.00000000       0.00000000    -408.21658325
Ho       0.00000000       0.00000000       1.00303030       0.00000000       0.00000000     408.21658325
2
Properties=species:S:1:pos:R:3:forces:R:3 energy=-29.1981920792375 pbc="F F F"
Ho       0.00000000       0.00000000       0.00000000       0.00000000       0.00000000     -77.30210114
Ho       0.00000000       0.00000000       1.06181818       0.00000000       0.00000000      77.30210114
2
Properties=species:S:1:pos:R:3:forces:R:3 energy=-33.690390950469386 pbc="F F F"
Ho       0.00000000       0.00000000       0.00000000       0.00000000       0.00000000     -74.05757141
Ho       0.00000000       0.00000000       1.12060606       0.00000000       0.00000000      74.05757141
2
Properties=species:S:1:pos:R:3:forces:R:3 energy=-38.06431891916744 pbc="F F F"
Ho       0.00000000       0.00000000       0.00000000       0.00000000       0.00000000     -76.24200439
Ho       0.00000000       0.00000000       1.17939394       0.00000000       0.00000000      76.24200439
2
Properties=species:S:1:pos:R:3:forces:R:3 energy=-42.65087427024376 pbc="F F F"
Ho       0.00000000       0.00000000       0.00000000       0.00000000       0.00000000     -78.97245789
Ho       0.00000000       0.00000000       1.23818182       0.00000000       0.00000000      78.97245789
2
Properties=species:S:1:pos:R:3:forces:R:3 energy=-47.26536843558313 pbc="F F F"
Ho       0.00000000       0.00000000       0.00000000       0.00000000       0.00000000     -77.41610718
Ho       0.00000000       0.00000000       1.29696970       0.00000000       0.00000000      77.41610718
2
Properties=species:S:1:pos:R:3:forces:R:3 energy=-51.673075440862334 pbc="F F F"
Ho       0.00000000       0.00000000       0.00000000       0.00000000       0.00000000     -71.78546906
Ho       0.00000000       0.00000000       1.35575758       0.00000000       0.00000000      71.78546906
2
Properties=species:S:1:pos:R:3:forces:R:3 energy=-55.62713859662826 pbc="F F F"
Ho       0.00000000       0.00000000       0.00000000       0.00000000       0.00000000     -62.21331406
Ho       0.00000000       0.00000000       1.41454545       0.00000000       0.00000000      62.21331406
2
Properties=species:S:1:pos:R:3:forces:R:3 energy=-58.94175925469355 pbc="F F F"
Ho       0.00000000       0.00000000       0.00000000       0.00000000       0.00000000     -50.25658417
Ho       0.00000000       0.00000000       1.47333333       0.00000000       0.00000000      50.25658417
2
Properties=species:S:1:pos:R:3:forces:R:3 energy=-61.513929122619786 pbc="F F F"
Ho       0.00000000       0.00000000       0.00000000       0.00000000       0.00000000     -37.21132660
Ho       0.00000000       0.00000000       1.53212121       0.00000000       0.00000000      37.21132660
2
Properties=species:S:1:pos:R:3:forces:R:3 energy=-63.336320160624055 pbc="F F F"
Ho       0.00000000       0.00000000       0.00000000       0.00000000       0.00000000     -25.15556335
Ho       0.00000000       0.00000000       1.59090909       0.00000000       0.00000000      25.15556335
2
Properties=species:S:1:pos:R:3:forces:R:3 energy=-64.53119721175996 pbc="F F F"
Ho       0.00000000       0.00000000       0.00000000       0.00000000       0.00000000     -16.07480431
Ho       0.00000000       0.00000000       1.64969697       0.00000000       0.00000000      16.07480431
2
Properties=species:S:1:pos:R:3:forces:R:3 energy=-65.29250329020569 pbc="F F F"
Ho       0.00000000       0.00000000       0.00000000       0.00000000       0.00000000     -10.33014584
Ho       0.00000000       0.00000000       1.70848485       0.00000000       0.00000000      10.33014584
2
Properties=species:S:1:pos:R:3:forces:R:3 energy=-65.79480654372037 pbc="F F F"
Ho       0.00000000       0.00000000       0.00000000       0.00000000       0.00000000      -7.08538532
Ho       0.00000000       0.00000000       1.76727273       0.00000000       0.00000000       7.08538532
2
Properties=species:S:1:pos:R:3:forces:R:3 energy=-66.15505795473788 pbc="F F F"
Ho       0.00000000       0.00000000       0.00000000       0.00000000       0.00000000      -5.36044312
Ho       0.00000000       0.00000000       1.82606061       0.00000000       0.00000000       5.36044312
2
Properties=species:S:1:pos:R:3:forces:R:3 energy=-66.44269260487329 pbc="F F F"
Ho       0.00000000       0.00000000       0.00000000       0.00000000       0.00000000      -4.54326963
Ho       0.00000000       0.00000000       1.88484848       0.00000000       0.00000000       4.54326963
2
Properties=species:S:1:pos:R:3:forces:R:3 energy=-66.6998094804787 pbc="F F F"
Ho       0.00000000       0.00000000       0.00000000       0.00000000       0.00000000      -4.26544380
Ho       0.00000000       0.00000000       1.94363636       0.00000000       0.00000000       4.26544380
2
Properties=species:S:1:pos:R:3:forces:R:3 energy=-66.94832016463404 pbc="F F F"
Ho       0.00000000       0.00000000       0.00000000       0.00000000       0.00000000      -4.20247602
Ho       0.00000000       0.00000000       2.00242424       0.00000000       0.00000000       4.20247602
2
Properties=species:S:1:pos:R:3:forces:R:3 energy=-67.19402297184045 pbc="F F F"
Ho       0.00000000       0.00000000       0.00000000       0.00000000       0.00000000      -4.15029001
Ho       0.00000000       0.00000000       2.06121212       0.00000000       0.00000000       4.15029001
2
Properties=species:S:1:pos:R:3:forces:R:3 energy=-67.43539962090802 pbc="F F F"
Ho       0.00000000       0.00000000       0.00000000       0.00000000       0.00000000      -4.05422783
Ho       0.00000000       0.00000000       2.12000000       0.00000000       0.00000000       4.05422783
2
Properties=species:S:1:pos:R:3:forces:R:3 energy=-67.66997051743238 pbc="F F F"
Ho       0.00000000       0.00000000       0.00000000       0.00000000       0.00000000      -3.92048335
Ho       0.00000000       0.00000000       2.17878788       0.00000000       0.00000000       3.92048335
2
Properties=species:S:1:pos:R:3:forces:R:3 energy=-67.8957290863023 pbc="F F F"
Ho       0.00000000       0.00000000       0.00000000       0.00000000       0.00000000      -3.75405669
Ho       0.00000000       0.00000000       2.23757576       0.00000000       0.00000000       3.75405669
2
Properties=species:S:1:pos:R:3:forces:R:3 energy=-68.11045512935969 pbc="F F F"
Ho       0.00000000       0.00000000       0.00000000       0.00000000       0.00000000      -3.54188848
Ho       0.00000000       0.00000000       2.29636364       0.00000000       0.00000000       3.54188848
2
Properties=species:S:1:pos:R:3:forces:R:3 energy=-68.31092137470398 pbc="F F F"
Ho       0.00000000       0.00000000       0.00000000       0.00000000       0.00000000      -3.26716661
Ho       0.00000000       0.00000000       2.35515152       0.00000000       0.00000000       3.26716661
2
Properties=species:S:1:pos:R:3:forces:R:3 energy=-68.49351141646741 pbc="F F F"
Ho       0.00000000       0.00000000       0.00000000       0.00000000       0.00000000      -2.93830943
Ho       0.00000000       0.00000000       2.41393939       0.00000000       0.00000000       2.93830943
2
Properties=species:S:1:pos:R:3:forces:R:3 energy=-68.65623393832784 pbc="F F F"
Ho       0.00000000       0.00000000       0.00000000       0.00000000       0.00000000      -2.60193706
Ho       0.00000000       0.00000000       2.47272727       0.00000000       0.00000000       2.60193706
2
Properties=species:S:1:pos:R:3:forces:R:3 energy=-68.80059948437473 pbc="F F F"
Ho       0.00000000       0.00000000       0.00000000       0.00000000       0.00000000      -2.32446837
Ho       0.00000000       0.00000000       2.53151515       0.00000000       0.00000000       2.32446837
2
Properties=species:S:1:pos:R:3:forces:R:3 energy=-68.9317120656965 pbc="F F F"
Ho       0.00000000       0.00000000       0.00000000       0.00000000       0.00000000      -2.15641665
Ho       0.00000000       0.00000000       2.59030303       0.00000000       0.00000000       2.15641665
2
Properties=species:S:1:pos:R:3:forces:R:3 energy=-69.05646856941819 pbc="F F F"
Ho       0.00000000       0.00000000       0.00000000       0.00000000       0.00000000      -2.10534191
Ho       0.00000000       0.00000000       2.64909091       0.00000000       0.00000000       2.10534191
2
Properties=species:S:1:pos:R:3:forces:R:3 energy=-69.18082747347317 pbc="F F F"
Ho       0.00000000       0.00000000       0.00000000       0.00000000       0.00000000      -2.13390613
Ho       0.00000000       0.00000000       2.70787879       0.00000000       0.00000000       2.13390613
2
Properties=species:S:1:pos:R:3:forces:R:3 energy=-69.30770311787334 pbc="F F F"
Ho       0.00000000       0.00000000       0.00000000       0.00000000       0.00000000      -2.18000674
Ho       0.00000000       0.00000000       2.76666667       0.00000000       0.00000000       2.18000674
2
Properties=species:S:1:pos:R:3:forces:R:3 energy=-69.43630195372064 pbc="F F F"
Ho       0.00000000       0.00000000       0.00000000       0.00000000       0.00000000      -2.18390036
Ho       0.00000000       0.00000000       2.82545455       0.00000000       0.00000000       2.18390036
2
Properties=species:S:1:pos:R:3:forces:R:3 energy=-69.56290836767583 pbc="F F F"
Ho       0.00000000       0.00000000       0.00000000       0.00000000       0.00000000      -2.10887074
Ho       0.00000000       0.00000000       2.88424242       0.00000000       0.00000000       2.10887074
2
Properties=species:S:1:pos:R:3:forces:R:3 energy=-69.68257839804109 pbc="F F F"
Ho       0.00000000       0.00000000       0.00000000       0.00000000       0.00000000      -1.94915783
Ho       0.00000000       0.00000000       2.94303030       0.00000000       0.00000000       1.94915783
2
Properties=species:S:1:pos:R:3:forces:R:3 energy=-69.79080296177465 pbc="F F F"
Ho       0.00000000       0.00000000       0.00000000       0.00000000       0.00000000      -1.72447658
Ho       0.00000000       0.00000000       3.00181818       0.00000000       0.00000000       1.72447658
2
Properties=species:S:1:pos:R:3:forces:R:3 energy=-69.88466751295617 pbc="F F F"
Ho       0.00000000       0.00000000       0.00000000       0.00000000       0.00000000      -1.46554911
Ho       0.00000000       0.00000000       3.06060606       0.00000000       0.00000000       1.46554911
2
Properties=species:S:1:pos:R:3:forces:R:3 energy=-69.96297409726007 pbc="F F F"
Ho       0.00000000       0.00000000       0.00000000       0.00000000       0.00000000      -1.19899189
Ho       0.00000000       0.00000000       3.11939394       0.00000000       0.00000000       1.19899189
2
Properties=species:S:1:pos:R:3:forces:R:3 energy=-70.02577597789606 pbc="F F F"
Ho       0.00000000       0.00000000       0.00000000       0.00000000       0.00000000      -0.93926924
Ho       0.00000000       0.00000000       3.17818182       0.00000000       0.00000000       0.93926924
2
Properties=species:S:1:pos:R:3:forces:R:3 energy=-70.07361468665258 pbc="F F F"
Ho       0.00000000       0.00000000       0.00000000       0.00000000       0.00000000      -0.68997204
Ho       0.00000000       0.00000000       3.23696970       0.00000000       0.00000000       0.68997204
2
Properties=species:S:1:pos:R:3:forces:R:3 energy=-70.1071004135332 pbc="F F F"
Ho       0.00000000       0.00000000       0.00000000       0.00000000       0.00000000      -0.45077729
Ho       0.00000000       0.00000000       3.29575758       0.00000000       0.00000000       0.45077729
2
Properties=species:S:1:pos:R:3:forces:R:3 energy=-70.12685857882016 pbc="F F F"
Ho       0.00000000       0.00000000       0.00000000       0.00000000       0.00000000      -0.22412613
Ho       0.00000000       0.00000000       3.35454545       0.00000000       0.00000000       0.22412613
2
Properties=species:S:1:pos:R:3:forces:R:3 energy=-70.13384267943182 pbc="F F F"
Ho       0.00000000       0.00000000       0.00000000       0.00000000       0.00000000      -0.01746631
Ho       0.00000000       0.00000000       3.41333333       0.00000000       0.00000000       0.01746631
2
Properties=species:S:1:pos:R:3:forces:R:3 energy=-70.12950209125286 pbc="F F F"
Ho       0.00000000       0.00000000       0.00000000       0.00000000       0.00000000       0.15928625
Ho       0.00000000       0.00000000       3.47212121       0.00000000       0.00000000      -0.15928625
2
Properties=species:S:1:pos:R:3:forces:R:3 energy=-70.11585076853108 pbc="F F F"
Ho       0.00000000       0.00000000       0.00000000       0.00000000       0.00000000       0.29845354
Ho       0.00000000       0.00000000       3.53090909       0.00000000       0.00000000      -0.29845354
2
Properties=species:S:1:pos:R:3:forces:R:3 energy=-70.09518494360849 pbc="F F F"
Ho       0.00000000       0.00000000       0.00000000       0.00000000       0.00000000       0.39834261
Ho       0.00000000       0.00000000       3.58969697       0.00000000       0.00000000      -0.39834261
2
Properties=species:S:1:pos:R:3:forces:R:3 energy=-70.06968640157348 pbc="F F F"
Ho       0.00000000       0.00000000       0.00000000       0.00000000       0.00000000       0.46410280
Ho       0.00000000       0.00000000       3.64848485       0.00000000       0.00000000      -0.46410280
2
Properties=species:S:1:pos:R:3:forces:R:3 energy=-70.04109441312814 pbc="F F F"
Ho       0.00000000       0.00000000       0.00000000       0.00000000       0.00000000       0.50569862
Ho       0.00000000       0.00000000       3.70727273       0.00000000       0.00000000      -0.50569862
2
Properties=species:S:1:pos:R:3:forces:R:3 energy=-70.01048448214691 pbc="F F F"
Ho       0.00000000       0.00000000       0.00000000       0.00000000       0.00000000       0.53437686
Ho       0.00000000       0.00000000       3.76606061       0.00000000       0.00000000      -0.53437686
2
Properties=species:S:1:pos:R:3:forces:R:3 energy=-69.97832936182584 pbc="F F F"
Ho       0.00000000       0.00000000       0.00000000       0.00000000       0.00000000       0.55941314
Ho       0.00000000       0.00000000       3.82484848       0.00000000       0.00000000      -0.55941314
2
Properties=species:S:1:pos:R:3:forces:R:3 energy=-69.94466692987271 pbc="F F F"
Ho       0.00000000       0.00000000       0.00000000       0.00000000       0.00000000       0.58628988
Ho       0.00000000       0.00000000       3.88363636       0.00000000       0.00000000      -0.58628988
2
Properties=species:S:1:pos:R:3:forces:R:3 energy=-69.90932906717511 pbc="F F F"
Ho       0.00000000       0.00000000       0.00000000       0.00000000       0.00000000       0.61641997
Ho       0.00000000       0.00000000       3.94242424       0.00000000       0.00000000      -0.61641997
2
Properties=species:S:1:pos:R:3:forces:R:3 energy=-69.87216287222805 pbc="F F F"
Ho       0.00000000       0.00000000       0.00000000       0.00000000       0.00000000       0.64807028
Ho       0.00000000       0.00000000       4.00121212       0.00000000       0.00000000      -0.64807028
2
Properties=species:S:1:pos:R:3:forces:R:3 energy=-69.83316805359186 pbc="F F F"
Ho       0.00000000       0.00000000       0.00000000       0.00000000       0.00000000       0.67806298
Ho       0.00000000       0.00000000       4.06000000       0.00000000       0.00000000      -0.67806298
2
Properties=species:S:1:pos:R:3:forces:R:3 energy=-69.79252739361746 pbc="F F F"
Ho       0.00000000       0.00000000       0.00000000       0.00000000       0.00000000       0.70357394
Ho       0.00000000       0.00000000       4.11878788       0.00000000       0.00000000      -0.70357394
2
Properties=species:S:1:pos:R:3:forces:R:3 energy=-69.75056100375728 pbc="F F F"
Ho       0.00000000       0.00000000       0.00000000       0.00000000       0.00000000       0.72329319
Ho       0.00000000       0.00000000       4.17757576       0.00000000       0.00000000      -0.72329319
2
Properties=species:S:1:pos:R:3:forces:R:3 energy=-69.70759661535486 pbc="F F F"
Ho       0.00000000       0.00000000       0.00000000       0.00000000       0.00000000       0.73758078
Ho       0.00000000       0.00000000       4.23636364       0.00000000       0.00000000      -0.73758078
2
Properties=species:S:1:pos:R:3:forces:R:3 energy=-69.66391616437959 pbc="F F F"
Ho       0.00000000       0.00000000       0.00000000       0.00000000       0.00000000       0.74774212
Ho       0.00000000       0.00000000       4.29515152       0.00000000       0.00000000      -0.74774212
2
Properties=species:S:1:pos:R:3:forces:R:3 energy=-69.6197329285857 pbc="F F F"
Ho       0.00000000       0.00000000       0.00000000       0.00000000       0.00000000       0.75502962
Ho       0.00000000       0.00000000       4.35393939       0.00000000       0.00000000      -0.75502962
2
Properties=species:S:1:pos:R:3:forces:R:3 energy=-69.57519151484108 pbc="F F F"
Ho       0.00000000       0.00000000       0.00000000       0.00000000       0.00000000       0.75976765
Ho       0.00000000       0.00000000       4.41272727       0.00000000       0.00000000      -0.75976765
2
Properties=species:S:1:pos:R:3:forces:R:3 energy=-69.53046703175255 pbc="F F F"
Ho       0.00000000       0.00000000       0.00000000       0.00000000       0.00000000       0.76100767
Ho       0.00000000       0.00000000       4.47151515       0.00000000       0.00000000      -0.76100767
2
Properties=species:S:1:pos:R:3:forces:R:3 energy=-69.4858261501648 pbc="F F F"
Ho       0.00000000       0.00000000       0.00000000       0.00000000       0.00000000       0.75672871
Ho       0.00000000       0.00000000       4.53030303       0.00000000       0.00000000      -0.75672871
2
Properties=species:S:1:pos:R:3:forces:R:3 energy=-69.44165759856372 pbc="F F F"
Ho       0.00000000       0.00000000       0.00000000       0.00000000       0.00000000       0.74444884
Ho       0.00000000       0.00000000       4.58909091       0.00000000       0.00000000      -0.74444884
2
Properties=species:S:1:pos:R:3:forces:R:3 energy=-69.39849507660263 pbc="F F F"
Ho       0.00000000       0.00000000       0.00000000       0.00000000       0.00000000       0.72213006
Ho       0.00000000       0.00000000       4.64787879       0.00000000       0.00000000      -0.72213006
2
Properties=species:S:1:pos:R:3:forces:R:3 energy=-69.35696383350135 pbc="F F F"
Ho       0.00000000       0.00000000       0.00000000       0.00000000       0.00000000       0.68888730
Ho       0.00000000       0.00000000       4.70666667       0.00000000       0.00000000      -0.68888730
2
Properties=species:S:1:pos:R:3:forces:R:3 energy=-69.31769674787424 pbc="F F F"
Ho       0.00000000       0.00000000       0.00000000       0.00000000       0.00000000       0.64547157
Ho       0.00000000       0.00000000       4.76545455       0.00000000       0.00000000      -0.64547157
2
Properties=species:S:1:pos:R:3:forces:R:3 energy=-69.28122754154934 pbc="F F F"
Ho       0.00000000       0.00000000       0.00000000       0.00000000       0.00000000       0.59418678
Ho       0.00000000       0.00000000       4.82424242       0.00000000       0.00000000      -0.59418678
2
Properties=species:S:1:pos:R:3:forces:R:3 energy=-69.2479220865072 pbc="F F F"
Ho       0.00000000       0.00000000       0.00000000       0.00000000       0.00000000       0.53842920
Ho       0.00000000       0.00000000       4.88303030       0.00000000       0.00000000      -0.53842920
2
Properties=species:S:1:pos:R:3:forces:R:3 energy=-69.21793265385622 pbc="F F F"
Ho       0.00000000       0.00000000       0.00000000       0.00000000       0.00000000       0.48190412
Ho       0.00000000       0.00000000       4.94181818       0.00000000       0.00000000      -0.48190412
2
Properties=species:S:1:pos:R:3:forces:R:3 energy=-69.19121315995045 pbc="F F F"
Ho       0.00000000       0.00000000       0.00000000       0.00000000       0.00000000       0.42799789
Ho       0.00000000       0.00000000       5.00060606       0.00000000       0.00000000      -0.42799789
2
Properties=species:S:1:pos:R:3:forces:R:3 energy=-69.16751155600203 pbc="F F F"
Ho       0.00000000       0.00000000       0.00000000       0.00000000       0.00000000       0.37926981
Ho       0.00000000       0.00000000       5.05939394       0.00000000       0.00000000      -0.37926981
2
Properties=species:S:1:pos:R:3:forces:R:3 energy=-69.146484270583 pbc="F F F"
Ho       0.00000000       0.00000000       0.00000000       0.00000000       0.00000000       0.33740491
Ho       0.00000000       0.00000000       5.11818182       0.00000000       0.00000000      -0.33740491
2
Properties=species:S:1:pos:R:3:forces:R:3 energy=-69.12768856439172 pbc="F F F"
Ho       0.00000000       0.00000000       0.00000000       0.00000000       0.00000000       0.30335388
Ho       0.00000000       0.00000000       5.17696970       0.00000000       0.00000000      -0.30335388
2
Properties=species:S:1:pos:R:3:forces:R:3 energy=-69.11065123123356 pbc="F F F"
Ho       0.00000000       0.00000000       0.00000000       0.00000000       0.00000000       0.27764153
Ho       0.00000000       0.00000000       5.23575758       0.00000000       0.00000000      -0.27764153
2
Properties=species:S:1:pos:R:3:forces:R:3 energy=-69.09487619573724 pbc="F F F"
Ho       0.00000000       0.00000000       0.00000000       0.00000000       0.00000000       0.26041400
Ho       0.00000000       0.00000000       5.29454545       0.00000000       0.00000000      -0.26041400
2
Properties=species:S:1:pos:R:3:forces:R:3 energy=-69.07988269675744 pbc="F F F"
Ho       0.00000000       0.00000000       0.00000000       0.00000000       0.00000000       0.25073165
Ho       0.00000000       0.00000000       5.35333333       0.00000000       0.00000000      -0.25073165
2
Properties=species:S:1:pos:R:3:forces:R:3 energy=-69.06533497441049 pbc="F F F"
Ho       0.00000000       0.00000000       0.00000000       0.00000000       0.00000000       0.24392036
Ho       0.00000000       0.00000000       5.41212121       0.00000000       0.00000000      -0.24392036
2
Properties=species:S:1:pos:R:3:forces:R:3 energy=-69.0513398180451 pbc="F F F"
Ho       0.00000000       0.00000000       0.00000000       0.00000000       0.00000000       0.23032680
Ho       0.00000000       0.00000000       5.47090909       0.00000000       0.00000000      -0.23032680
2
Properties=species:S:1:pos:R:3:forces:R:3 energy=-69.03847709015602 pbc="F F F"
Ho       0.00000000       0.00000000       0.00000000       0.00000000       0.00000000       0.20588581
Ho       0.00000000       0.00000000       5.52969697       0.00000000       0.00000000      -0.20588581
2
Properties=species:S:1:pos:R:3:forces:R:3 energy=-69.02724279167074 pbc="F F F"
Ho       0.00000000       0.00000000       0.00000000       0.00000000       0.00000000       0.17544141
Ho       0.00000000       0.00000000       5.58848485       0.00000000       0.00000000      -0.17544141
2
Properties=species:S:1:pos:R:3:forces:R:3 energy=-69.01798039264688 pbc="F F F"
Ho       0.00000000       0.00000000       0.00000000       0.00000000       0.00000000       0.13856909
Ho       0.00000000       0.00000000       5.64727273       0.00000000       0.00000000      -0.13856909
2
Properties=species:S:1:pos:R:3:forces:R:3 energy=-69.01114785316129 pbc="F F F"
Ho       0.00000000       0.00000000       0.00000000       0.00000000       0.00000000       0.09200601
Ho       0.00000000       0.00000000       5.70606061       0.00000000       0.00000000      -0.09200601
2
Properties=species:S:1:pos:R:3:forces:R:3 energy=-69.00722610066997 pbc="F F F"
Ho       0.00000000       0.00000000       0.00000000       0.00000000       0.00000000       0.04259857
Ho       0.00000000       0.00000000       5.76484848       0.00000000       0.00000000      -0.04259857
2
Properties=species:S:1:pos:R:3:forces:R:3 energy=-69.00573481910658 pbc="F F F"
Ho       0.00000000       0.00000000       0.00000000       0.00000000       0.00000000       0.01255861
Ho       0.00000000       0.00000000       5.82363636       0.00000000       0.00000000      -0.01255861
2
Properties=species:S:1:pos:R:3:forces:R:3 energy=-69.00529347136748 pbc="F F F"
Ho       0.00000000       0.00000000       0.00000000       0.00000000       0.00000000       0.00500615
Ho       0.00000000       0.00000000       5.88242424       0.00000000       0.00000000      -0.00500615
2
Properties=species:S:1:pos:R:3:forces:R:3 energy=-69.00499462992501 pbc="F F F"
Ho       0.00000000       0.00000000       0.00000000       0.00000000       0.00000000       0.00576513
Ho       0.00000000       0.00000000       5.94121212       0.00000000       0.00000000      -0.00576513
2
Properties=species:S:1:pos:R:3:forces:R:3 energy=-69.00461756344451 pbc="F F F"
Ho       0.00000000       0.00000000       0.00000000       0.00000000       0.00000000       0.00675177
Ho       0.00000000       0.00000000       6.00000000       0.00000000       0.00000000      -0.00675177
