2
Properties=species:S:1:pos:R:3:forces:R:3 energy=16142.087330037875 pbc="F F F"
I        0.00000000       0.00000000       0.00000000       0.00000000       0.00000000 -156642.15625000
I        0.00000000       0.00000000       0.18000000       0.00000000       0.00000000  156642.15625000
2
Properties=species:S:1:pos:R:3:forces:R:3 energy=10664.626392537875 pbc="F F F"
I        0.00000000       0.00000000       0.00000000       0.00000000       0.00000000  -51069.47656250
I        0.00000000       0.00000000       0.23878788       0.00000000       0.00000000   51069.47656250
2
Properties=species:S:1:pos:R:3:forces:R:3 energy=8850.763111287875 pbc="F F F"
I        0.00000000       0.00000000       0.00000000       0.00000000       0.00000000  -16028.23632812
I        0.00000000       0.00000000       0.29757576       0.00000000       0.00000000   16028.23632812
2
Properties=species:S:1:pos:R:3:forces:R:3 energy=8381.859790975375 pbc="F F F"
I        0.00000000       0.00000000       0.00000000       0.00000000       0.00000000   -1039.87500000
I        0.00000000       0.00000000       0.35636364       0.00000000       0.00000000    1039.87500000
2
Properties=species:S:1:pos:R:3:forces:R:3 energy=8525.164478476958 pbc="F F F"
I        0.00000000       0.00000000       0.00000000       0.00000000       0.00000000    4470.48144531
I        0.00000000       0.00000000       0.41515152       0.00000000       0.00000000   -4470.48144531
2
Properties=species:S:1:pos:R:3:forces:R:3 energy=8419.597095666042 pbc="F F F"
I        0.00000000       0.00000000       0.00000000       0.00000000       0.00000000   -5340.02246094
I        0.00000000       0.00000000       0.47393939       0.00000000       0.00000000    5340.02246094
2
Properties=species:S:1:pos:R:3:forces:R:3 energy=7293.8221933238765 pbc="F F F"
I        0.00000000       0.00000000       0.00000000       0.00000000       0.00000000  -31915.36523438
I        0.00000000       0.00000000       0.53272727       0.00000000       0.00000000   31915.36523438
2
Properties=species:S:1:pos:R:3:forces:R:3 energy=4962.283619111462 pbc="F F F"
I        0.00000000       0.00000000       0.00000000       0.00000000       0.00000000  -46199.49218750
I        0.00000000       0.00000000       0.59151515       0.00000000       0.00000000   46199.49218750
2
Properties=species:S:1:pos:R:3:forces:R:3 energy=1326.3164560334442 pbc="F F F"
I        0.00000000       0.00000000       0.00000000       0.00000000       0.00000000  -54023.73828125
I        0.00000000       0.00000000       0.65030303       0.00000000       0.00000000   54023.73828125
2
Properties=species:S:1:pos:R:3:forces:R:3 energy=1634.01726171097 pbc="F F F"
I        0.00000000       0.00000000       0.00000000       0.00000000       0.00000000   56357.92578125
I        0.00000000       0.00000000       0.70909091       0.00000000       0.00000000  -56357.92578125
2
Properties=species:S:1:pos:R:3:forces:R:3 energy=2281.668628918269 pbc="F F F"
I        0.00000000       0.00000000       0.00000000       0.00000000       0.00000000  -19531.22851562
I        0.00000000       0.00000000       0.76787879       0.00000000       0.00000000   19531.22851562
2
Properties=species:S:1:pos:R:3:forces:R:3 energy=1184.4865000421132 pbc="F F F"
I        0.00000000       0.00000000       0.00000000       0.00000000       0.00000000  -18517.25781250
I        0.00000000       0.00000000       0.82666667       0.00000000       0.00000000   18517.25781250
2
Properties=species:S:1:pos:R:3:forces:R:3 energy=696.0456431512849 pbc="F F F"
I        0.00000000       0.00000000       0.00000000       0.00000000       0.00000000   -7008.52539062
I        0.00000000       0.00000000       0.88545455       0.00000000       0.00000000    7008.52539062
2
Properties=species:S:1:pos:R:3:forces:R:3 energy=360.1582225555928 pbc="F F F"
I        0.00000000       0.00000000       0.00000000       0.00000000       0.00000000   -4370.23388672
I        0.00000000       0.00000000       0.94424242       0.00000000       0.00000000    4370.23388672
2
Properties=species:S:1:pos:R:3:forces:R:3 energy=166.74034543910665 pbc="F F F"
I        0.00000000       0.00000000       0.00000000       0.00000000       0.00000000    -721.90454102
I        0.00000000       0.00000000       1.00303030       0.00000000       0.00000000     721.90454102
2
Properties=species:S:1:pos:R:3:forces:R:3 energy=122.58701760650197 pbc="F F F"
I        0.00000000       0.00000000       0.00000000       0.00000000       0.00000000    -651.25457764
I        0.00000000       0.00000000       1.06181818       0.00000000       0.00000000     651.25457764
2
Properties=species:S:1:pos:R:3:forces:R:3 energy=90.62438652505193 pbc="F F F"
I        0.00000000       0.00000000       0.00000000       0.00000000       0.00000000    -443.15325928
I        0.00000000       0.00000000       1.12060606       0.00000000       0.00000000     443.15325928
2
Properties=species:S:1:pos:R:3:forces:R:3 energy=69.46067516489384 pbc="F F F"
I        0.00000000       0.00000000       0.00000000       0.00000000       0.00000000    -287.56805420
I        0.00000000       0.00000000       1.17939394       0.00000000       0.00000000     287.56805420
2
Properties=species:S:1:pos:R:3:forces:R:3 energy=55.206265617985125 pbc="F F F"
I        0.00000000       0.00000000       0.00000000       0.00000000       0.00000000    -212.71105957
I        0.00000000       0.00000000       1.23818182       0.00000000       0.00000000     212.71105957
2
Properties=species:S:1:pos:R:3:forces:R:3 energy=44.23882818270716 pbc="F F F"
I        0.00000000       0.00000000       0.00000000       0.00000000       0.00000000    -117.14865875
I        0.00000000       0.00000000       1.29696970       0.00000000       0.00000000     117.14865875
2
Properties=species:S:1:pos:R:3:forces:R:3 energy=37.63032332174193 pbc="F F F"
I        0.00000000       0.00000000       0.00000000       0.00000000       0.00000000    -145.40144348
I        0.00000000       0.00000000       1.35575758       0.00000000       0.00000000     145.40144348
2
Properties=species:S:1:pos:R:3:forces:R:3 energy=25.613058486594504 pbc="F F F"
I        0.00000000       0.00000000       0.00000000       0.00000000       0.00000000    -251.16821289
I        0.00000000       0.00000000       1.41454545       0.00000000       0.00000000     251.16821289
2
Properties=species:S:1:pos:R:3:forces:R:3 energy=10.645289462510156 pbc="F F F"
I        0.00000000       0.00000000       0.00000000       0.00000000       0.00000000    -243.28248596
I        0.00000000       0.00000000       1.47333333       0.00000000       0.00000000     243.28248596
2
Properties=species:S:1:pos:R:3:forces:R:3 energy=-2.304474053472135 pbc="F F F"
I        0.00000000       0.00000000       0.00000000       0.00000000       0.00000000    -196.66581726
I        0.00000000       0.00000000       1.53212121       0.00000000       0.00000000     196.66581726
2
Properties=species:S:1:pos:R:3:forces:R:3 energy=-12.397078750174646 pbc="F F F"
I        0.00000000       0.00000000       0.00000000       0.00000000       0.00000000    -147.32070923
I        0.00000000       0.00000000       1.59090909       0.00000000       0.00000000     147.32070923
2
Properties=species:S:1:pos:R:3:forces:R:3 energy=-19.864837756006864 pbc="F F F"
I        0.00000000       0.00000000       0.00000000       0.00000000       0.00000000    -109.15941620
I        0.00000000       0.00000000       1.64969697       0.00000000       0.00000000     109.15941620
2
Properties=species:S:1:pos:R:3:forces:R:3 energy=-25.48563456974561 pbc="F F F"
I        0.00000000       0.00000000       0.00000000       0.00000000       0.00000000     -83.88085175
I        0.00000000       0.00000000       1.70848485       0.00000000       0.00000000      83.88085175
2
Properties=species:S:1:pos:R:3:forces:R:3 energy=-29.899380808156163 pbc="F F F"
I        0.00000000       0.00000000       0.00000000       0.00000000       0.00000000     -67.40402985
I        0.00000000       0.00000000       1.76727273       0.00000000       0.00000000      67.40402985
2
Properties=species:S:1:pos:R:3:forces:R:3 energy=-33.508546067442474 pbc="F F F"
I        0.00000000       0.00000000       0.00000000       0.00000000       0.00000000     -55.96243668
I        0.00000000       0.00000000       1.82606061       0.00000000       0.00000000      55.96243668
2
Properties=species:S:1:pos:R:3:forces:R:3 energy=-36.52672474465227 pbc="F F F"
I        0.00000000       0.00000000       0.00000000       0.00000000       0.00000000     -46.99647141
I        0.00000000       0.00000000       1.88484848       0.00000000       0.00000000      46.99647141
2
Properties=species:S:1:pos:R:3:forces:R:3 energy=-39.059589625404115 pbc="F F F"
I        0.00000000       0.00000000       0.00000000       0.00000000       0.00000000     -39.35621262
I        0.00000000       0.00000000       1.94363636       0.00000000       0.00000000      39.35621262
2
Properties=species:S:1:pos:R:3:forces:R:3 energy=-41.1743708820383 pbc="F F F"
I        0.00000000       0.00000000       0.00000000       0.00000000       0.00000000     -32.75640869
I        0.00000000       0.00000000       2.00242424       0.00000000       0.00000000      32.75640869
2
Properties=species:S:1:pos:R:3:forces:R:3 energy=-42.92947147504664 pbc="F F F"
I        0.00000000       0.00000000       0.00000000       0.00000000       0.00000000     -27.09816360
I        0.00000000       0.00000000       2.06121212       0.00000000       0.00000000      27.09816360
2
Properties=species:S:1:pos:R:3:forces:R:3 energy=-44.37559248005422 pbc="F F F"
I        0.00000000       0.00000000       0.00000000       0.00000000       0.00000000     -22.21127892
I        0.00000000       0.00000000       2.12000000       0.00000000       0.00000000      22.21127892
2
Properties=species:S:1:pos:R:3:forces:R:3 energy=-45.55210913016889 pbc="F F F"
I        0.00000000       0.00000000       0.00000000       0.00000000       0.00000000     -17.89490891
I        0.00000000       0.00000000       2.17878788       0.00000000       0.00000000      17.89490891
2
Properties=species:S:1:pos:R:3:forces:R:3 energy=-46.488150377683205 pbc="F F F"
I        0.00000000       0.00000000       0.00000000       0.00000000       0.00000000     -14.01987267
I        0.00000000       0.00000000       2.23757576       0.00000000       0.00000000      14.01987267
2
Properties=species:S:1:pos:R:3:forces:R:3 energy=-47.2092860560053 pbc="F F F"
I        0.00000000       0.00000000       0.00000000       0.00000000       0.00000000     -10.59690285
I        0.00000000       0.00000000       2.29636364       0.00000000       0.00000000      10.59690285
2
Properties=species:S:1:pos:R:3:forces:R:3 energy=-47.74508760409557 pbc="F F F"
I        0.00000000       0.00000000       0.00000000       0.00000000       0.00000000      -7.73300314
I        0.00000000       0.00000000       2.35515152       0.00000000       0.00000000       7.73300314
2
Properties=species:S:1:pos:R:3:forces:R:3 energy=-48.130520437304355 pbc="F F F"
I        0.00000000       0.00000000       0.00000000       0.00000000       0.00000000      -5.47658157
I        0.00000000       0.00000000       2.41393939       0.00000000       0.00000000       5.47658157
2
Properties=species:S:1:pos:R:3:forces:R:3 energy=-48.39891727025685 pbc="F F F"
I        0.00000000       0.00000000       0.00000000       0.00000000       0.00000000      -3.72349286
I        0.00000000       0.00000000       2.47272727       0.00000000       0.00000000       3.72349286
2
Properties=species:S:1:pos:R:3:forces:R:3 energy=-48.57468823433834 pbc="F F F"
I        0.00000000       0.00000000       0.00000000       0.00000000       0.00000000      -2.29842448
I        0.00000000       0.00000000       2.53151515       0.00000000       0.00000000       2.29842448
2
Properties=species:S:1:pos:R:3:forces:R:3 energy=-48.6732712739584 pbc="F F F"
I        0.00000000       0.00000000       0.00000000       0.00000000       0.00000000      -1.08690250
I        0.00000000       0.00000000       2.59030303       0.00000000       0.00000000       1.08690250
2
Properties=species:S:1:pos:R:3:forces:R:3 energy=-48.70622096775044 pbc="F F F"
I        0.00000000       0.00000000       0.00000000       0.00000000       0.00000000      -0.06715527
I        0.00000000       0.00000000       2.64909091       0.00000000       0.00000000       0.06715527
2
Properties=species:S:1:pos:R:3:forces:R:3 energy=-48.68511858138961 pbc="F F F"
I        0.00000000       0.00000000       0.00000000       0.00000000       0.00000000       0.75211704
I        0.00000000       0.00000000       2.70787879       0.00000000       0.00000000      -0.75211704
2
Properties=species:S:1:pos:R:3:forces:R:3 energy=-48.62142710751281 pbc="F F F"
I        0.00000000       0.00000000       0.00000000       0.00000000       0.00000000       1.38563621
I        0.00000000       0.00000000       2.76666667       0.00000000       0.00000000      -1.38563621
2
Properties=species:S:1:pos:R:3:forces:R:3 energy=-48.52575121603305 pbc="F F F"
I        0.00000000       0.00000000       0.00000000       0.00000000       0.00000000       1.83520067
I        0.00000000       0.00000000       2.82545455       0.00000000       0.00000000      -1.83520067
2
Properties=species:S:1:pos:R:3:forces:R:3 energy=-48.41048845844367 pbc="F F F"
I        0.00000000       0.00000000       0.00000000       0.00000000       0.00000000       2.03836536
I        0.00000000       0.00000000       2.88424242       0.00000000       0.00000000      -2.03836536
2
Properties=species:S:1:pos:R:3:forces:R:3 energy=-48.29181290326884 pbc="F F F"
I        0.00000000       0.00000000       0.00000000       0.00000000       0.00000000       1.95539868
I        0.00000000       0.00000000       2.94303030       0.00000000       0.00000000      -1.95539868
2
Properties=species:S:1:pos:R:3:forces:R:3 energy=-48.1840331861364 pbc="F F F"
I        0.00000000       0.00000000       0.00000000       0.00000000       0.00000000       1.70017171
I        0.00000000       0.00000000       3.00181818       0.00000000       0.00000000      -1.70017171
2
Properties=species:S:1:pos:R:3:forces:R:3 energy=-48.091059005068225 pbc="F F F"
I        0.00000000       0.00000000       0.00000000       0.00000000       0.00000000       1.48558521
I        0.00000000       0.00000000       3.06060606       0.00000000       0.00000000      -1.48558521
2
Properties=species:S:1:pos:R:3:forces:R:3 energy=-48.00574111845652 pbc="F F F"
I        0.00000000       0.00000000       0.00000000       0.00000000       0.00000000       1.45051503
I        0.00000000       0.00000000       3.11939394       0.00000000       0.00000000      -1.45051503
2
Properties=species:S:1:pos:R:3:forces:R:3 energy=-47.91709632228834 pbc="F F F"
I        0.00000000       0.00000000       0.00000000       0.00000000       0.00000000       1.58685088
I        0.00000000       0.00000000       3.17818182       0.00000000       0.00000000      -1.58685088
2
Properties=species:S:1:pos:R:3:forces:R:3 energy=-47.81773834420261 pbc="F F F"
I        0.00000000       0.00000000       0.00000000       0.00000000       0.00000000       1.79590642
I        0.00000000       0.00000000       3.23696970       0.00000000       0.00000000      -1.79590642
2
Properties=species:S:1:pos:R:3:forces:R:3 energy=-47.7065785335287 pbc="F F F"
I        0.00000000       0.00000000       0.00000000       0.00000000       0.00000000       1.97411954
I        0.00000000       0.00000000       3.29575758       0.00000000       0.00000000      -1.97411954
2
Properties=species:S:1:pos:R:3:forces:R:3 energy=-47.58742974781953 pbc="F F F"
I        0.00000000       0.00000000       0.00000000       0.00000000       0.00000000       2.06222963
I        0.00000000       0.00000000       3.35454545       0.00000000       0.00000000      -2.06222963
2
Properties=species:S:1:pos:R:3:forces:R:3 energy=-47.466081087478706 pbc="F F F"
I        0.00000000       0.00000000       0.00000000       0.00000000       0.00000000       2.05080247
I        0.00000000       0.00000000       3.41333333       0.00000000       0.00000000      -2.05080247
2
Properties=species:S:1:pos:R:3:forces:R:3 energy=-47.34785028721989 pbc="F F F"
I        0.00000000       0.00000000       0.00000000       0.00000000       0.00000000       1.96083355
I        0.00000000       0.00000000       3.47212121       0.00000000       0.00000000      -1.96083355
2
Properties=species:S:1:pos:R:3:forces:R:3 energy=-47.2364976669701 pbc="F F F"
I        0.00000000       0.00000000       0.00000000       0.00000000       0.00000000       1.82143819
I        0.00000000       0.00000000       3.53090909       0.00000000       0.00000000      -1.82143819
2
Properties=species:S:1:pos:R:3:forces:R:3 energy=-47.13417915568989 pbc="F F F"
I        0.00000000       0.00000000       0.00000000       0.00000000       0.00000000       1.65691173
I        0.00000000       0.00000000       3.58969697       0.00000000       0.00000000      -1.65691173
2
Properties=species:S:1:pos:R:3:forces:R:3 energy=-47.04185536111384 pbc="F F F"
I        0.00000000       0.00000000       0.00000000       0.00000000       0.00000000       1.48348856
I        0.00000000       0.00000000       3.64848485       0.00000000       0.00000000      -1.48348856
2
Properties=species:S:1:pos:R:3:forces:R:3 energy=-46.95973656834878 pbc="F F F"
I        0.00000000       0.00000000       0.00000000       0.00000000       0.00000000       1.31087577
I        0.00000000       0.00000000       3.70727273       0.00000000       0.00000000      -1.31087577
2
Properties=species:S:1:pos:R:3:forces:R:3 energy=-46.887600237233606 pbc="F F F"
I        0.00000000       0.00000000       0.00000000       0.00000000       0.00000000       1.14474702
I        0.00000000       0.00000000       3.76606061       0.00000000       0.00000000      -1.14474702
2
Properties=species:S:1:pos:R:3:forces:R:3 energy=-46.82494495476928 pbc="F F F"
I        0.00000000       0.00000000       0.00000000       0.00000000       0.00000000       0.98867899
I        0.00000000       0.00000000       3.82484848       0.00000000       0.00000000      -0.98867899
2
Properties=species:S:1:pos:R:3:forces:R:3 energy=-46.77110933300998 pbc="F F F"
I        0.00000000       0.00000000       0.00000000       0.00000000       0.00000000       0.84518027
I        0.00000000       0.00000000       3.88363636       0.00000000       0.00000000      -0.84518027
2
Properties=species:S:1:pos:R:3:forces:R:3 energy=-46.72529122193366 pbc="F F F"
I        0.00000000       0.00000000       0.00000000       0.00000000       0.00000000       0.71603853
I        0.00000000       0.00000000       3.94242424       0.00000000       0.00000000      -0.71603853
2
Properties=species:S:1:pos:R:3:forces:R:3 energy=-46.68662011820597 pbc="F F F"
I        0.00000000       0.00000000       0.00000000       0.00000000       0.00000000       0.60219485
I        0.00000000       0.00000000       4.00121212       0.00000000       0.00000000      -0.60219485
2
Properties=species:S:1:pos:R:3:forces:R:3 energy=-46.65419141113259 pbc="F F F"
I        0.00000000       0.00000000       0.00000000       0.00000000       0.00000000       0.50350642
I        0.00000000       0.00000000       4.06000000       0.00000000       0.00000000      -0.50350642
2
Properties=species:S:1:pos:R:3:forces:R:3 energy=-46.627146416065955 pbc="F F F"
I        0.00000000       0.00000000       0.00000000       0.00000000       0.00000000       0.41869122
I        0.00000000       0.00000000       4.11878788       0.00000000       0.00000000      -0.41869122
2
Properties=species:S:1:pos:R:3:forces:R:3 energy=-46.604733362836164 pbc="F F F"
I        0.00000000       0.00000000       0.00000000       0.00000000       0.00000000       0.34551328
I        0.00000000       0.00000000       4.17757576       0.00000000       0.00000000      -0.34551328
2
Properties=species:S:1:pos:R:3:forces:R:3 energy=-46.586345534012125 pbc="F F F"
I        0.00000000       0.00000000       0.00000000       0.00000000       0.00000000       0.28125292
I        0.00000000       0.00000000       4.23636364       0.00000000       0.00000000      -0.28125292
2
Properties=species:S:1:pos:R:3:forces:R:3 energy=-46.57154410635976 pbc="F F F"
I        0.00000000       0.00000000       0.00000000       0.00000000       0.00000000       0.22324562
I        0.00000000       0.00000000       4.29515152       0.00000000       0.00000000      -0.22324562
2
Properties=species:S:1:pos:R:3:forces:R:3 energy=-46.56002004584299 pbc="F F F"
I        0.00000000       0.00000000       0.00000000       0.00000000       0.00000000       0.16936137
I        0.00000000       0.00000000       4.35393939       0.00000000       0.00000000      -0.16936137
2
Properties=species:S:1:pos:R:3:forces:R:3 energy=-46.551574974740774 pbc="F F F"
I        0.00000000       0.00000000       0.00000000       0.00000000       0.00000000       0.11826093
I        0.00000000       0.00000000       4.41272727       0.00000000       0.00000000      -0.11826093
2
Properties=species:S:1:pos:R:3:forces:R:3 energy=-46.54606780152334 pbc="F F F"
I        0.00000000       0.00000000       0.00000000       0.00000000       0.00000000       0.06948629
I        0.00000000       0.00000000       4.47151515       0.00000000       0.00000000      -0.06948629
2
Properties=species:S:1:pos:R:3:forces:R:3 energy=-46.54335368490401 pbc="F F F"
I        0.00000000       0.00000000       0.00000000       0.00000000       0.00000000       0.02335382
I        0.00000000       0.00000000       4.53030303       0.00000000       0.00000000      -0.02335382
2
Properties=species:S:1:pos:R:3:forces:R:3 energy=-46.543253500421976 pbc="F F F"
I        0.00000000       0.00000000       0.00000000       0.00000000       0.00000000      -0.01921383
I        0.00000000       0.00000000       4.58909091       0.00000000       0.00000000       0.01921383
2
Properties=species:S:1:pos:R:3:forces:R:3 energy=-46.54551951608642 pbc="F F F"
I        0.00000000       0.00000000       0.00000000       0.00000000       0.00000000      -0.05694955
I        0.00000000       0.00000000       4.64787879       0.00000000       0.00000000       0.05694955
2
Properties=species:S:1:pos:R:3:forces:R:3 energy=-46.54982776614985 pbc="F F F"
I        0.00000000       0.00000000       0.00000000       0.00000000       0.00000000      -0.08852963
I        0.00000000       0.00000000       4.70666667       0.00000000       0.00000000       0.08852963
2
Properties=species:S:1:pos:R:3:forces:R:3 energy=-46.555785682878486 pbc="F F F"
I        0.00000000       0.00000000       0.00000000       0.00000000       0.00000000      -0.11291294
I        0.00000000       0.00000000       4.76545455       0.00000000       0.00000000       0.11291294
2
Properties=species:S:1:pos:R:3:forces:R:3 energy=-46.56295496335302 pbc="F F F"
I        0.00000000       0.00000000       0.00000000       0.00000000       0.00000000      -0.12964796
I        0.00000000       0.00000000       4.82424242       0.00000000       0.00000000       0.12964796
2
Properties=species:S:1:pos:R:3:forces:R:3 energy=-46.57088592708665 pbc="F F F"
I        0.00000000       0.00000000       0.00000000       0.00000000       0.00000000      -0.13901486
I        0.00000000       0.00000000       4.88303030       0.00000000       0.00000000       0.13901486
2
Properties=species:S:1:pos:R:3:forces:R:3 energy=-46.57917089327633 pbc="F F F"
I        0.00000000       0.00000000       0.00000000       0.00000000       0.00000000      -0.14195602
I        0.00000000       0.00000000       4.94181818       0.00000000       0.00000000       0.14195602
2
Properties=species:S:1:pos:R:3:forces:R:3 energy=-46.58747470709245 pbc="F F F"
I        0.00000000       0.00000000       0.00000000       0.00000000       0.00000000      -0.13975397
I        0.00000000       0.00000000       5.00060606       0.00000000       0.00000000       0.13975397
2
Properties=species:S:1:pos:R:3:forces:R:3 energy=-46.59552710474061 pbc="F F F"
I        0.00000000       0.00000000       0.00000000       0.00000000       0.00000000      -0.13363408
I        0.00000000       0.00000000       5.05939394       0.00000000       0.00000000       0.13363408
2
Properties=species:S:1:pos:R:3:forces:R:3 energy=-46.60312651311172 pbc="F F F"
I        0.00000000       0.00000000       0.00000000       0.00000000       0.00000000      -0.12438762
I        0.00000000       0.00000000       5.11818182       0.00000000       0.00000000       0.12438762
2
Properties=species:S:1:pos:R:3:forces:R:3 energy=-46.6100942734148 pbc="F F F"
I        0.00000000       0.00000000       0.00000000       0.00000000       0.00000000      -0.11213679
I        0.00000000       0.00000000       5.17696970       0.00000000       0.00000000       0.11213679
2
Properties=species:S:1:pos:R:3:forces:R:3 energy=-46.61624410775979 pbc="F F F"
I        0.00000000       0.00000000       0.00000000       0.00000000       0.00000000      -0.09640756
I        0.00000000       0.00000000       5.23575758       0.00000000       0.00000000       0.09640756
2
Properties=species:S:1:pos:R:3:forces:R:3 energy=-46.62135161029089 pbc="F F F"
I        0.00000000       0.00000000       0.00000000       0.00000000       0.00000000      -0.07683282
I        0.00000000       0.00000000       5.29454545       0.00000000       0.00000000       0.07683282
2
Properties=species:S:1:pos:R:3:forces:R:3 energy=-46.625226696340306 pbc="F F F"
I        0.00000000       0.00000000       0.00000000       0.00000000       0.00000000      -0.05493670
I        0.00000000       0.00000000       5.35333333       0.00000000       0.00000000       0.05493670
2
Properties=species:S:1:pos:R:3:forces:R:3 energy=-46.62787001372767 pbc="F F F"
I        0.00000000       0.00000000       0.00000000       0.00000000       0.00000000      -0.03601023
I        0.00000000       0.00000000       5.41212121       0.00000000       0.00000000       0.03601023
2
Properties=species:S:1:pos:R:3:forces:R:3 energy=-46.6296255120397 pbc="F F F"
I        0.00000000       0.00000000       0.00000000       0.00000000       0.00000000      -0.02499595
I        0.00000000       0.00000000       5.47090909       0.00000000       0.00000000       0.02499595
2
Properties=species:S:1:pos:R:3:forces:R:3 energy=-46.630840938137354 pbc="F F F"
I        0.00000000       0.00000000       0.00000000       0.00000000       0.00000000      -0.01555385
I        0.00000000       0.00000000       5.52969697       0.00000000       0.00000000       0.01555385
2
Properties=species:S:1:pos:R:3:forces:R:3 energy=-46.63130705467096 pbc="F F F"
I        0.00000000       0.00000000       0.00000000       0.00000000       0.00000000       0.00063601
I        0.00000000       0.00000000       5.58848485       0.00000000       0.00000000      -0.00063601
2
Properties=species:S:1:pos:R:3:forces:R:3 energy=-46.630787894483504 pbc="F F F"
I        0.00000000       0.00000000       0.00000000       0.00000000       0.00000000       0.01589145
I        0.00000000       0.00000000       5.64727273       0.00000000       0.00000000      -0.01589145
2
Properties=species:S:1:pos:R:3:forces:R:3 energy=-46.62964253844593 pbc="F F F"
I        0.00000000       0.00000000       0.00000000       0.00000000       0.00000000       0.02121029
I        0.00000000       0.00000000       5.70606061       0.00000000       0.00000000      -0.02121029
2
Properties=species:S:1:pos:R:3:forces:R:3 energy=-46.62843601435612 pbc="F F F"
I        0.00000000       0.00000000       0.00000000       0.00000000       0.00000000       0.01932722
I        0.00000000       0.00000000       5.76484848       0.00000000       0.00000000      -0.01932722
2
Properties=species:S:1:pos:R:3:forces:R:3 energy=-46.6273861773188 pbc="F F F"
I        0.00000000       0.00000000       0.00000000       0.00000000       0.00000000       0.01621210
I        0.00000000       0.00000000       5.82363636       0.00000000       0.00000000      -0.01621210
2
Properties=species:S:1:pos:R:3:forces:R:3 energy=-46.62656968003513 pbc="F F F"
I        0.00000000       0.00000000       0.00000000       0.00000000       0.00000000       0.01133265
I        0.00000000       0.00000000       5.88242424       0.00000000       0.00000000      -0.01133265
2
Properties=species:S:1:pos:R:3:forces:R:3 energy=-46.62607457574053 pbc="F F F"
I        0.00000000       0.00000000       0.00000000       0.00000000       0.00000000       0.00567387
I        0.00000000       0.00000000       5.94121212       0.00000000       0.00000000      -0.00567387
2
Properties=species:S:1:pos:R:3:forces:R:3 energy=-46.62583628265844 pbc="F F F"
I        0.00000000       0.00000000       0.00000000       0.00000000       0.00000000       0.00316571
I        0.00000000       0.00000000       6.00000000       0.00000000       0.00000000      -0.00316571
