2
Properties=species:S:1:pos:R:3:forces:R:3 energy=53011.96428316287 pbc="F F F"
I        0.00000000       0.00000000       0.00000000       0.00000000       0.00000000 -1124041.62500000
I        0.00000000       0.00000000       0.10000000       0.00000000       0.00000000 1124041.62500000
2
Properties=species:S:1:pos:R:3:forces:R:3 energy=20133.405689412873 pbc="F F F"
I        0.00000000       0.00000000       0.00000000       0.00000000       0.00000000 -241835.28125000
I        0.00000000       0.00000000       0.15959596       0.00000000       0.00000000  241835.28125000
2
Properties=species:S:1:pos:R:3:forces:R:3 energy=11869.179126912875 pbc="F F F"
I        0.00000000       0.00000000       0.00000000       0.00000000       0.00000000  -73254.29687500
I        0.00000000       0.00000000       0.21919192       0.00000000       0.00000000   73254.29687500
2
Properties=species:S:1:pos:R:3:forces:R:3 energy=9223.267017537875 pbc="F F F"
I        0.00000000       0.00000000       0.00000000       0.00000000       0.00000000  -23971.47656250
I        0.00000000       0.00000000       0.27878788       0.00000000       0.00000000   23971.47656250
2
Properties=species:S:1:pos:R:3:forces:R:3 energy=8429.877369100375 pbc="F F F"
I        0.00000000       0.00000000       0.00000000       0.00000000       0.00000000   -4462.42626953
I        0.00000000       0.00000000       0.33838384       0.00000000       0.00000000    4462.42626953
2
Properties=species:S:1:pos:R:3:forces:R:3 energy=8453.199634725375 pbc="F F F"
I        0.00000000       0.00000000       0.00000000       0.00000000       0.00000000    3767.54028320
I        0.00000000       0.00000000       0.39797980       0.00000000       0.00000000   -3767.54028320
2
Properties=species:S:1:pos:R:3:forces:R:3 energy=8486.510181601958 pbc="F F F"
I        0.00000000       0.00000000       0.00000000       0.00000000       0.00000000   -2978.83251953
I        0.00000000       0.00000000       0.45757576       0.00000000       0.00000000    2978.83251953
2
Properties=species:S:1:pos:R:3:forces:R:3 energy=7757.1869394176265 pbc="F F F"
I        0.00000000       0.00000000       0.00000000       0.00000000       0.00000000  -27694.52929688
I        0.00000000       0.00000000       0.51717172       0.00000000       0.00000000   27694.52929688
2
Properties=species:S:1:pos:R:3:forces:R:3 energy=5624.708423797379 pbc="F F F"
I        0.00000000       0.00000000       0.00000000       0.00000000       0.00000000  -43462.78125000
I        0.00000000       0.00000000       0.57676768       0.00000000       0.00000000   43462.78125000
2
Properties=species:S:1:pos:R:3:forces:R:3 energy=2149.5365488037137 pbc="F F F"
I        0.00000000       0.00000000       0.00000000       0.00000000       0.00000000  -63523.22265625
I        0.00000000       0.00000000       0.63636364       0.00000000       0.00000000   63523.22265625
2
Properties=species:S:1:pos:R:3:forces:R:3 energy=1189.1340829960727 pbc="F F F"
I        0.00000000       0.00000000       0.00000000       0.00000000       0.00000000   31665.85546875
I        0.00000000       0.00000000       0.69595960       0.00000000       0.00000000  -31665.85546875
2
Properties=species:S:1:pos:R:3:forces:R:3 energy=2532.460376960392 pbc="F F F"
I        0.00000000       0.00000000       0.00000000       0.00000000       0.00000000  -21771.50000000
I        0.00000000       0.00000000       0.75555556       0.00000000       0.00000000   21771.50000000
2
Properties=species:S:1:pos:R:3:forces:R:3 energy=1396.8885996451525 pbc="F F F"
I        0.00000000       0.00000000       0.00000000       0.00000000       0.00000000  -18396.79101562
I        0.00000000       0.00000000       0.81515152       0.00000000       0.00000000   18396.79101562
2
Properties=species:S:1:pos:R:3:forces:R:3 energy=773.1248057394378 pbc="F F F"
I        0.00000000       0.00000000       0.00000000       0.00000000       0.00000000   -7377.71289062
I        0.00000000       0.00000000       0.87474747       0.00000000       0.00000000    7377.71289062
2
Properties=species:S:1:pos:R:3:forces:R:3 energy=405.6137889507554 pbc="F F F"
I        0.00000000       0.00000000       0.00000000       0.00000000       0.00000000   -4816.17285156
I        0.00000000       0.00000000       0.93434343       0.00000000       0.00000000    4816.17285156
2
Properties=species:S:1:pos:R:3:forces:R:3 energy=180.78023190025277 pbc="F F F"
I        0.00000000       0.00000000       0.00000000       0.00000000       0.00000000   -2848.98925781
I        0.00000000       0.00000000       0.99393939       0.00000000       0.00000000    2848.98925781
2
Properties=species:S:1:pos:R:3:forces:R:3 energy=128.1136670641766 pbc="F F F"
I        0.00000000       0.00000000       0.00000000       0.00000000       0.00000000    -683.41278076
I        0.00000000       0.00000000       1.05353535       0.00000000       0.00000000     683.41278076
2
Properties=species:S:1:pos:R:3:forces:R:3 energy=94.02586050348454 pbc="F F F"
I        0.00000000       0.00000000       0.00000000       0.00000000       0.00000000    -467.12622070
I        0.00000000       0.00000000       1.11313131       0.00000000       0.00000000     467.12622070
2
Properties=species:S:1:pos:R:3:forces:R:3 energy=71.42438211214197 pbc="F F F"
I        0.00000000       0.00000000       0.00000000       0.00000000       0.00000000    -301.73919678
I        0.00000000       0.00000000       1.17272727       0.00000000       0.00000000     301.73919678
2
Properties=species:S:1:pos:R:3:forces:R:3 energy=56.459294460687545 pbc="F F F"
I        0.00000000       0.00000000       0.00000000       0.00000000       0.00000000    -215.37863159
I        0.00000000       0.00000000       1.23232323       0.00000000       0.00000000     215.37863159
2
Properties=species:S:1:pos:R:3:forces:R:3 energy=44.86304232656004 pbc="F F F"
I        0.00000000       0.00000000       0.00000000       0.00000000       0.00000000    -130.63912964
I        0.00000000       0.00000000       1.29191919       0.00000000       0.00000000     130.63912964
2
Properties=species:S:1:pos:R:3:forces:R:3 energy=38.231160997583245 pbc="F F F"
I        0.00000000       0.00000000       0.00000000       0.00000000       0.00000000    -137.85382080
I        0.00000000       0.00000000       1.35151515       0.00000000       0.00000000     137.85382080
2
Properties=species:S:1:pos:R:3:forces:R:3 energy=26.470640547201437 pbc="F F F"
I        0.00000000       0.00000000       0.00000000       0.00000000       0.00000000    -248.19082642
I        0.00000000       0.00000000       1.41111111       0.00000000       0.00000000     248.19082642
2
Properties=species:S:1:pos:R:3:forces:R:3 energy=11.286646855874757 pbc="F F F"
I        0.00000000       0.00000000       0.00000000       0.00000000       0.00000000    -245.14085388
I        0.00000000       0.00000000       1.47070707       0.00000000       0.00000000     245.14085388
2
Properties=species:S:1:pos:R:3:forces:R:3 energy=-1.9455225102111966 pbc="F F F"
I        0.00000000       0.00000000       0.00000000       0.00000000       0.00000000    -198.17495728
I        0.00000000       0.00000000       1.53030303       0.00000000       0.00000000     198.17495728
2
Properties=species:S:1:pos:R:3:forces:R:3 energy=-12.247832551777355 pbc="F F F"
I        0.00000000       0.00000000       0.00000000       0.00000000       0.00000000    -148.10372925
I        0.00000000       0.00000000       1.58989899       0.00000000       0.00000000     148.10372925
2
Properties=species:S:1:pos:R:3:forces:R:3 energy=-19.842794531025273 pbc="F F F"
I        0.00000000       0.00000000       0.00000000       0.00000000       0.00000000    -109.26622772
I        0.00000000       0.00000000       1.64949495       0.00000000       0.00000000     109.26622772
2
Properties=species:S:1:pos:R:3:forces:R:3 energy=-25.536394823071536 pbc="F F F"
I        0.00000000       0.00000000       0.00000000       0.00000000       0.00000000     -83.67327881
I        0.00000000       0.00000000       1.70909091       0.00000000       0.00000000      83.67327881
2
Properties=species:S:1:pos:R:3:forces:R:3 energy=-29.994484986087684 pbc="F F F"
I        0.00000000       0.00000000       0.00000000       0.00000000       0.00000000     -67.08282471
I        0.00000000       0.00000000       1.76868687       0.00000000       0.00000000      67.08282471
2
Properties=species:S:1:pos:R:3:forces:R:3 energy=-33.63247787618037 pbc="F F F"
I        0.00000000       0.00000000       0.00000000       0.00000000       0.00000000     -55.58984756
I        0.00000000       0.00000000       1.82828283       0.00000000       0.00000000      55.58984756
2
Properties=species:S:1:pos:R:3:forces:R:3 energy=-36.668494032662764 pbc="F F F"
I        0.00000000       0.00000000       0.00000000       0.00000000       0.00000000     -46.57487869
I        0.00000000       0.00000000       1.88787879       0.00000000       0.00000000      46.57487869
2
Properties=species:S:1:pos:R:3:forces:R:3 energy=-39.209766447583334 pbc="F F F"
I        0.00000000       0.00000000       0.00000000       0.00000000       0.00000000     -38.89455414
I        0.00000000       0.00000000       1.94747475       0.00000000       0.00000000      38.89455414
2
Properties=species:S:1:pos:R:3:forces:R:3 energy=-41.32546697102276 pbc="F F F"
I        0.00000000       0.00000000       0.00000000       0.00000000       0.00000000     -32.27663422
I        0.00000000       0.00000000       2.00707071       0.00000000       0.00000000      32.27663422
2
Properties=species:S:1:pos:R:3:forces:R:3 energy=-43.075951686888935 pbc="F F F"
I        0.00000000       0.00000000       0.00000000       0.00000000       0.00000000     -26.61546326
I        0.00000000       0.00000000       2.06666667       0.00000000       0.00000000      26.61546326
2
Properties=species:S:1:pos:R:3:forces:R:3 energy=-44.513180516152886 pbc="F F F"
I        0.00000000       0.00000000       0.00000000       0.00000000       0.00000000     -21.72747231
I        0.00000000       0.00000000       2.12626263       0.00000000       0.00000000      21.72747231
2
Properties=species:S:1:pos:R:3:forces:R:3 energy=-45.67690634536782 pbc="F F F"
I        0.00000000       0.00000000       0.00000000       0.00000000       0.00000000     -17.40667725
I        0.00000000       0.00000000       2.18585859       0.00000000       0.00000000      17.40667725
2
Properties=species:S:1:pos:R:3:forces:R:3 energy=-46.59668536975225 pbc="F F F"
I        0.00000000       0.00000000       0.00000000       0.00000000       0.00000000     -13.53298378
I        0.00000000       0.00000000       2.24545455       0.00000000       0.00000000      13.53298378
2
Properties=species:S:1:pos:R:3:forces:R:3 energy=-47.299327191406064 pbc="F F F"
I        0.00000000       0.00000000       0.00000000       0.00000000       0.00000000     -10.13586044
I        0.00000000       0.00000000       2.30505051       0.00000000       0.00000000      10.13586044
2
Properties=species:S:1:pos:R:3:forces:R:3 energy=-47.81657762435521 pbc="F F F"
I        0.00000000       0.00000000       0.00000000       0.00000000       0.00000000      -7.32833147
I        0.00000000       0.00000000       2.36464646       0.00000000       0.00000000       7.32833147
2
Properties=species:S:1:pos:R:3:forces:R:3 energy=-48.18518735514273 pbc="F F F"
I        0.00000000       0.00000000       0.00000000       0.00000000       0.00000000      -5.13787746
I        0.00000000       0.00000000       2.42424242       0.00000000       0.00000000       5.13787746
2
Properties=species:S:1:pos:R:3:forces:R:3 energy=-48.43866838362162 pbc="F F F"
I        0.00000000       0.00000000       0.00000000       0.00000000       0.00000000      -3.43389082
I        0.00000000       0.00000000       2.48383838       0.00000000       0.00000000       3.43389082
2
Properties=species:S:1:pos:R:3:forces:R:3 energy=-48.600519119027204 pbc="F F F"
I        0.00000000       0.00000000       0.00000000       0.00000000       0.00000000      -2.03734708
I        0.00000000       0.00000000       2.54343434       0.00000000       0.00000000       2.03734708
2
Properties=species:S:1:pos:R:3:forces:R:3 energy=-48.68558240903585 pbc="F F F"
I        0.00000000       0.00000000       0.00000000       0.00000000       0.00000000      -0.84946519
I        0.00000000       0.00000000       2.60303030       0.00000000       0.00000000       0.84946519
2
Properties=species:S:1:pos:R:3:forces:R:3 energy=-48.70572181404798 pbc="F F F"
I        0.00000000       0.00000000       0.00000000       0.00000000       0.00000000       0.13916039
I        0.00000000       0.00000000       2.66262626       0.00000000       0.00000000      -0.13916039
2
Properties=species:S:1:pos:R:3:forces:R:3 energy=-48.67309460714652 pbc="F F F"
I        0.00000000       0.00000000       0.00000000       0.00000000       0.00000000       0.92289883
I        0.00000000       0.00000000       2.72222222       0.00000000       0.00000000      -0.92289883
2
Properties=species:S:1:pos:R:3:forces:R:3 energy=-48.59939646641417 pbc="F F F"
I        0.00000000       0.00000000       0.00000000       0.00000000       0.00000000       1.52052724
I        0.00000000       0.00000000       2.78181818       0.00000000       0.00000000      -1.52052724
2
Properties=species:S:1:pos:R:3:forces:R:3 energy=-48.495769919031275 pbc="F F F"
I        0.00000000       0.00000000       0.00000000       0.00000000       0.00000000       1.91821337
I        0.00000000       0.00000000       2.84141414       0.00000000       0.00000000      -1.91821337
2
Properties=species:S:1:pos:R:3:forces:R:3 energy=-48.37624519345759 pbc="F F F"
I        0.00000000       0.00000000       0.00000000       0.00000000       0.00000000       2.04223943
I        0.00000000       0.00000000       2.90101010       0.00000000       0.00000000      -2.04223943
2
Properties=species:S:1:pos:R:3:forces:R:3 energy=-48.25802248564722 pbc="F F F"
I        0.00000000       0.00000000       0.00000000       0.00000000       0.00000000       1.88784337
I        0.00000000       0.00000000       2.96060606       0.00000000       0.00000000      -1.88784337
2
Properties=species:S:1:pos:R:3:forces:R:3 energy=-48.15353357245487 pbc="F F F"
I        0.00000000       0.00000000       0.00000000       0.00000000       0.00000000       1.61934364
I        0.00000000       0.00000000       3.02020202       0.00000000       0.00000000      -1.61934364
2
Properties=species:S:1:pos:R:3:forces:R:3 energy=-48.06290391915388 pbc="F F F"
I        0.00000000       0.00000000       0.00000000       0.00000000       0.00000000       1.45197439
I        0.00000000       0.00000000       3.07979798       0.00000000       0.00000000      -1.45197439
2
Properties=species:S:1:pos:R:3:forces:R:3 energy=-47.97644743917884 pbc="F F F"
I        0.00000000       0.00000000       0.00000000       0.00000000       0.00000000       1.48163497
I        0.00000000       0.00000000       3.13939394       0.00000000       0.00000000      -1.48163497
2
Properties=species:S:1:pos:R:3:forces:R:3 energy=-47.883341015921246 pbc="F F F"
I        0.00000000       0.00000000       0.00000000       0.00000000       0.00000000       1.65848041
I        0.00000000       0.00000000       3.19898990       0.00000000       0.00000000      -1.65848041
2
Properties=species:S:1:pos:R:3:forces:R:3 energy=-47.77811316022629 pbc="F F F"
I        0.00000000       0.00000000       0.00000000       0.00000000       0.00000000       1.86934447
I        0.00000000       0.00000000       3.25858586       0.00000000       0.00000000      -1.86934447
2
Properties=species:S:1:pos:R:3:forces:R:3 energy=-47.66176926689073 pbc="F F F"
I        0.00000000       0.00000000       0.00000000       0.00000000       0.00000000       2.01982284
I        0.00000000       0.00000000       3.31818182       0.00000000       0.00000000      -2.01982284
2
Properties=species:S:1:pos:R:3:forces:R:3 energy=-47.53941144868557 pbc="F F F"
I        0.00000000       0.00000000       0.00000000       0.00000000       0.00000000       2.06885242
I        0.00000000       0.00000000       3.37777778       0.00000000       0.00000000      -2.06885242
2
Properties=species:S:1:pos:R:3:forces:R:3 energy=-47.41710005658542 pbc="F F F"
I        0.00000000       0.00000000       0.00000000       0.00000000       0.00000000       2.02183938
I        0.00000000       0.00000000       3.43737374       0.00000000       0.00000000      -2.02183938
2
Properties=species:S:1:pos:R:3:forces:R:3 energy=-47.29978774211113 pbc="F F F"
I        0.00000000       0.00000000       0.00000000       0.00000000       0.00000000       1.90635800
I        0.00000000       0.00000000       3.49696970       0.00000000       0.00000000      -1.90635800
2
Properties=species:S:1:pos:R:3:forces:R:3 energy=-47.19065229870907 pbc="F F F"
I        0.00000000       0.00000000       0.00000000       0.00000000       0.00000000       1.75158823
I        0.00000000       0.00000000       3.55656566       0.00000000       0.00000000      -1.75158823
2
Properties=species:S:1:pos:R:3:forces:R:3 energy=-47.09135367896295 pbc="F F F"
I        0.00000000       0.00000000       0.00000000       0.00000000       0.00000000       1.57924104
I        0.00000000       0.00000000       3.61616162       0.00000000       0.00000000      -1.57924104
2
Properties=species:S:1:pos:R:3:forces:R:3 energy=-47.00249663482279 pbc="F F F"
I        0.00000000       0.00000000       0.00000000       0.00000000       0.00000000       1.40289843
I        0.00000000       0.00000000       3.67575758       0.00000000       0.00000000      -1.40289843
2
Properties=species:S:1:pos:R:3:forces:R:3 energy=-46.924061555856404 pbc="F F F"
I        0.00000000       0.00000000       0.00000000       0.00000000       0.00000000       1.23045993
I        0.00000000       0.00000000       3.73535354       0.00000000       0.00000000      -1.23045993
2
Properties=species:S:1:pos:R:3:forces:R:3 energy=-46.855665312398415 pbc="F F F"
I        0.00000000       0.00000000       0.00000000       0.00000000       0.00000000       1.06662226
I        0.00000000       0.00000000       3.79494949       0.00000000       0.00000000      -1.06662226
2
Properties=species:S:1:pos:R:3:forces:R:3 energy=-46.79669587156473 pbc="F F F"
I        0.00000000       0.00000000       0.00000000       0.00000000       0.00000000       0.91449136
I        0.00000000       0.00000000       3.85454545       0.00000000       0.00000000      -0.91449136
2
Properties=species:S:1:pos:R:3:forces:R:3 energy=-46.7463851708944 pbc="F F F"
I        0.00000000       0.00000000       0.00000000       0.00000000       0.00000000       0.77629697
I        0.00000000       0.00000000       3.91414141       0.00000000       0.00000000      -0.77629697
2
Properties=species:S:1:pos:R:3:forces:R:3 energy=-46.70385871891758 pbc="F F F"
I        0.00000000       0.00000000       0.00000000       0.00000000       0.00000000       0.65347451
I        0.00000000       0.00000000       3.97373737       0.00000000       0.00000000      -0.65347451
2
Properties=species:S:1:pos:R:3:forces:R:3 energy=-46.668181259856965 pbc="F F F"
I        0.00000000       0.00000000       0.00000000       0.00000000       0.00000000       0.54645020
I        0.00000000       0.00000000       4.03333333       0.00000000       0.00000000      -0.54645020
2
Properties=species:S:1:pos:R:3:forces:R:3 energy=-46.638429183183746 pbc="F F F"
I        0.00000000       0.00000000       0.00000000       0.00000000       0.00000000       0.45441452
I        0.00000000       0.00000000       4.09292929       0.00000000       0.00000000      -0.45441452
2
Properties=species:S:1:pos:R:3:forces:R:3 energy=-46.613759109764814 pbc="F F F"
I        0.00000000       0.00000000       0.00000000       0.00000000       0.00000000       0.37544262
I        0.00000000       0.00000000       4.15252525       0.00000000       0.00000000      -0.37544262
2
Properties=species:S:1:pos:R:3:forces:R:3 energy=-46.593472720333445 pbc="F F F"
I        0.00000000       0.00000000       0.00000000       0.00000000       0.00000000       0.30685034
I        0.00000000       0.00000000       4.21212121       0.00000000       0.00000000      -0.30685034
2
Properties=species:S:1:pos:R:3:forces:R:3 energy=-46.57703580521699 pbc="F F F"
I        0.00000000       0.00000000       0.00000000       0.00000000       0.00000000       0.24577223
I        0.00000000       0.00000000       4.27171717       0.00000000       0.00000000      -0.24577223
2
Properties=species:S:1:pos:R:3:forces:R:3 energy=-46.5640820600272 pbc="F F F"
I        0.00000000       0.00000000       0.00000000       0.00000000       0.00000000       0.18971680
I        0.00000000       0.00000000       4.33131313       0.00000000       0.00000000      -0.18971680
2
Properties=species:S:1:pos:R:3:forces:R:3 energy=-46.55435969019391 pbc="F F F"
I        0.00000000       0.00000000       0.00000000       0.00000000       0.00000000       0.13694769
I        0.00000000       0.00000000       4.39090909       0.00000000       0.00000000      -0.13694769
2
Properties=species:S:1:pos:R:3:forces:R:3 energy=-46.5477085172378 pbc="F F F"
I        0.00000000       0.00000000       0.00000000       0.00000000       0.00000000       0.08664420
I        0.00000000       0.00000000       4.45050505       0.00000000       0.00000000      -0.08664420
2
Properties=species:S:1:pos:R:3:forces:R:3 energy=-46.54398367373766 pbc="F F F"
I        0.00000000       0.00000000       0.00000000       0.00000000       0.00000000       0.03886397
I        0.00000000       0.00000000       4.51010101       0.00000000       0.00000000      -0.03886397
2
Properties=species:S:1:pos:R:3:forces:R:3 energy=-46.54300983329886 pbc="F F F"
I        0.00000000       0.00000000       0.00000000       0.00000000       0.00000000      -0.00563899
I        0.00000000       0.00000000       4.56969697       0.00000000       0.00000000       0.00563899
2
Properties=species:S:1:pos:R:3:forces:R:3 energy=-46.544565966019505 pbc="F F F"
I        0.00000000       0.00000000       0.00000000       0.00000000       0.00000000      -0.04562504
I        0.00000000       0.00000000       4.62929293       0.00000000       0.00000000       0.04562504
2
Properties=species:S:1:pos:R:3:forces:R:3 energy=-46.548331908970034 pbc="F F F"
I        0.00000000       0.00000000       0.00000000       0.00000000       0.00000000      -0.07969978
I        0.00000000       0.00000000       4.68888889       0.00000000       0.00000000       0.07969978
2
Properties=species:S:1:pos:R:3:forces:R:3 energy=-46.553922717475544 pbc="F F F"
I        0.00000000       0.00000000       0.00000000       0.00000000       0.00000000      -0.10665366
I        0.00000000       0.00000000       4.74848485       0.00000000       0.00000000       0.10665366
2
Properties=species:S:1:pos:R:3:forces:R:3 energy=-46.560888647692764 pbc="F F F"
I        0.00000000       0.00000000       0.00000000       0.00000000       0.00000000      -0.12580508
I        0.00000000       0.00000000       4.80808081       0.00000000       0.00000000       0.12580508
2
Properties=species:S:1:pos:R:3:forces:R:3 energy=-46.568764760345815 pbc="F F F"
I        0.00000000       0.00000000       0.00000000       0.00000000       0.00000000      -0.13723664
I        0.00000000       0.00000000       4.86767677       0.00000000       0.00000000       0.13723664
2
Properties=species:S:1:pos:R:3:forces:R:3 energy=-46.57710905344365 pbc="F F F"
I        0.00000000       0.00000000       0.00000000       0.00000000       0.00000000      -0.14175898
I        0.00000000       0.00000000       4.92727273       0.00000000       0.00000000       0.14175898
2
Properties=species:S:1:pos:R:3:forces:R:3 energy=-46.58554823547943 pbc="F F F"
I        0.00000000       0.00000000       0.00000000       0.00000000       0.00000000      -0.14065875
I        0.00000000       0.00000000       4.98686869       0.00000000       0.00000000       0.14065875
2
Properties=species:S:1:pos:R:3:forces:R:3 energy=-46.59378917110621 pbc="F F F"
I        0.00000000       0.00000000       0.00000000       0.00000000       0.00000000      -0.13526507
I        0.00000000       0.00000000       5.04646465       0.00000000       0.00000000       0.13526507
2
Properties=species:S:1:pos:R:3:forces:R:3 energy=-46.60160359858925 pbc="F F F"
I        0.00000000       0.00000000       0.00000000       0.00000000       0.00000000      -0.12653355
I        0.00000000       0.00000000       5.10606061       0.00000000       0.00000000       0.12653355
2
Properties=species:S:1:pos:R:3:forces:R:3 energy=-46.608812883688195 pbc="F F F"
I        0.00000000       0.00000000       0.00000000       0.00000000       0.00000000      -0.11474426
I        0.00000000       0.00000000       5.16565657       0.00000000       0.00000000       0.11474426
2
Properties=species:S:1:pos:R:3:forces:R:3 energy=-46.61521552061018 pbc="F F F"
I        0.00000000       0.00000000       0.00000000       0.00000000       0.00000000      -0.09950235
I        0.00000000       0.00000000       5.22525253       0.00000000       0.00000000       0.09950235
2
Properties=species:S:1:pos:R:3:forces:R:3 energy=-46.62059093165992 pbc="F F F"
I        0.00000000       0.00000000       0.00000000       0.00000000       0.00000000      -0.08030271
I        0.00000000       0.00000000       5.28484848       0.00000000       0.00000000       0.08030271
2
Properties=species:S:1:pos:R:3:forces:R:3 energy=-46.6247261835838 pbc="F F F"
I        0.00000000       0.00000000       0.00000000       0.00000000       0.00000000      -0.05822841
I        0.00000000       0.00000000       5.34444444       0.00000000       0.00000000       0.05822841
2
Properties=species:S:1:pos:R:3:forces:R:3 energy=-46.62756854021852 pbc="F F F"
I        0.00000000       0.00000000       0.00000000       0.00000000       0.00000000      -0.03817853
I        0.00000000       0.00000000       5.40404040       0.00000000       0.00000000       0.03817853
2
Properties=species:S:1:pos:R:3:forces:R:3 energy=-46.62944290973866 pbc="F F F"
I        0.00000000       0.00000000       0.00000000       0.00000000       0.00000000      -0.02601377
I        0.00000000       0.00000000       5.46363636       0.00000000       0.00000000       0.02601377
2
Properties=species:S:1:pos:R:3:forces:R:3 energy=-46.63073902562169 pbc="F F F"
I        0.00000000       0.00000000       0.00000000       0.00000000       0.00000000      -0.01690235
I        0.00000000       0.00000000       5.52323232       0.00000000       0.00000000       0.01690235
2
Properties=species:S:1:pos:R:3:forces:R:3 energy=-46.63130490819886 pbc="F F F"
I        0.00000000       0.00000000       0.00000000       0.00000000       0.00000000      -0.00109172
I        0.00000000       0.00000000       5.58282828       0.00000000       0.00000000       0.00109172
2
Properties=species:S:1:pos:R:3:forces:R:3 energy=-46.63086264725417 pbc="F F F"
I        0.00000000       0.00000000       0.00000000       0.00000000       0.00000000       0.01495468
I        0.00000000       0.00000000       5.64242424       0.00000000       0.00000000      -0.01495468
2
Properties=species:S:1:pos:R:3:forces:R:3 energy=-46.62972938693523 pbc="F F F"
I        0.00000000       0.00000000       0.00000000       0.00000000       0.00000000       0.02117071
I        0.00000000       0.00000000       5.70202020       0.00000000       0.00000000      -0.02117071
2
Properties=species:S:1:pos:R:3:forces:R:3 energy=-46.628500702712394 pbc="F F F"
I        0.00000000       0.00000000       0.00000000       0.00000000       0.00000000       0.01947982
I        0.00000000       0.00000000       5.76161616       0.00000000       0.00000000      -0.01947982
2
Properties=species:S:1:pos:R:3:forces:R:3 energy=-46.627428793449106 pbc="F F F"
I        0.00000000       0.00000000       0.00000000       0.00000000       0.00000000       0.01636019
I        0.00000000       0.00000000       5.82121212       0.00000000       0.00000000      -0.01636019
2
Properties=species:S:1:pos:R:3:forces:R:3 energy=-46.62658652130391 pbc="F F F"
I        0.00000000       0.00000000       0.00000000       0.00000000       0.00000000       0.01148747
I        0.00000000       0.00000000       5.88080808       0.00000000       0.00000000      -0.01148747
2
Properties=species:S:1:pos:R:3:forces:R:3 energy=-46.62607720622085 pbc="F F F"
I        0.00000000       0.00000000       0.00000000       0.00000000       0.00000000       0.00574562
I        0.00000000       0.00000000       5.94040404       0.00000000       0.00000000      -0.00574562
2
Properties=species:S:1:pos:R:3:forces:R:3 energy=-46.62583628265844 pbc="F F F"
I        0.00000000       0.00000000       0.00000000       0.00000000       0.00000000       0.00316571
I        0.00000000       0.00000000       6.00000000       0.00000000       0.00000000      -0.00316571
