2
Properties=species:S:1:pos:R:3:forces:R:3 energy=35561.643404115304 pbc="F F F"
In       0.00000000       0.00000000       0.00000000       0.00000000       0.00000000 -984514.37500000
In       0.00000000       0.00000000       0.10000000       0.00000000       0.00000000  984514.37500000
2
Properties=species:S:1:pos:R:3:forces:R:3 energy=6643.757661927807 pbc="F F F"
In       0.00000000       0.00000000       0.00000000       0.00000000       0.00000000 -213834.31250000
In       0.00000000       0.00000000       0.15959596       0.00000000       0.00000000  213834.31250000
2
Properties=species:S:1:pos:R:3:forces:R:3 energy=-662.9133585800059 pbc="F F F"
In       0.00000000       0.00000000       0.00000000       0.00000000       0.00000000  -64405.94531250
In       0.00000000       0.00000000       0.21919192       0.00000000       0.00000000   64405.94531250
2
Properties=species:S:1:pos:R:3:forces:R:3 energy=-2937.5296915878184 pbc="F F F"
In       0.00000000       0.00000000       0.00000000       0.00000000       0.00000000  -19228.80468750
In       0.00000000       0.00000000       0.27878788       0.00000000       0.00000000   19228.80468750
2
Properties=species:S:1:pos:R:3:forces:R:3 energy=-3425.2291544784434 pbc="F F F"
In       0.00000000       0.00000000       0.00000000       0.00000000       0.00000000     800.03826904
In       0.00000000       0.00000000       0.33838384       0.00000000       0.00000000    -800.03826904
2
Properties=species:S:1:pos:R:3:forces:R:3 energy=-2999.4728068221934 pbc="F F F"
In       0.00000000       0.00000000       0.00000000       0.00000000       0.00000000   12319.64160156
In       0.00000000       0.00000000       0.39797980       0.00000000       0.00000000  -12319.64160156
2
Properties=species:S:1:pos:R:3:forces:R:3 energy=-2043.317655454214 pbc="F F F"
In       0.00000000       0.00000000       0.00000000       0.00000000       0.00000000   18813.15820312
In       0.00000000       0.00000000       0.45757576       0.00000000       0.00000000  -18813.15820312
2
Properties=species:S:1:pos:R:3:forces:R:3 energy=-888.2401408049845 pbc="F F F"
In       0.00000000       0.00000000       0.00000000       0.00000000       0.00000000   18754.39062500
In       0.00000000       0.00000000       0.51717172       0.00000000       0.00000000  -18754.39062500
2
Properties=species:S:1:pos:R:3:forces:R:3 energy=-29.345489388852805 pbc="F F F"
In       0.00000000       0.00000000       0.00000000       0.00000000       0.00000000    3968.69580078
In       0.00000000       0.00000000       0.57676768       0.00000000       0.00000000   -3968.69580078
2
Properties=species:S:1:pos:R:3:forces:R:3 energy=94.78135883514021 pbc="F F F"
In       0.00000000       0.00000000       0.00000000       0.00000000       0.00000000     376.94287109
In       0.00000000       0.00000000       0.63636364       0.00000000       0.00000000    -376.94287109
2
Properties=species:S:1:pos:R:3:forces:R:3 energy=170.5888692174524 pbc="F F F"
In       0.00000000       0.00000000       0.00000000       0.00000000       0.00000000     274.57138062
In       0.00000000       0.00000000       0.69595960       0.00000000       0.00000000    -274.57138062
2
Properties=species:S:1:pos:R:3:forces:R:3 energy=141.5641194695126 pbc="F F F"
In       0.00000000       0.00000000       0.00000000       0.00000000       0.00000000    -840.80322266
In       0.00000000       0.00000000       0.75555556       0.00000000       0.00000000     840.80322266
2
Properties=species:S:1:pos:R:3:forces:R:3 energy=97.69514670386357 pbc="F F F"
In       0.00000000       0.00000000       0.00000000       0.00000000       0.00000000    -604.57104492
In       0.00000000       0.00000000       0.81515152       0.00000000       0.00000000     604.57104492
2
Properties=species:S:1:pos:R:3:forces:R:3 energy=70.01758019534215 pbc="F F F"
In       0.00000000       0.00000000       0.00000000       0.00000000       0.00000000    -320.39529419
In       0.00000000       0.00000000       0.87474747       0.00000000       0.00000000     320.39529419
2
Properties=species:S:1:pos:R:3:forces:R:3 energy=59.37351055063778 pbc="F F F"
In       0.00000000       0.00000000       0.00000000       0.00000000       0.00000000     -78.55921173
In       0.00000000       0.00000000       0.93434343       0.00000000       0.00000000      78.55921173
2
Properties=species:S:1:pos:R:3:forces:R:3 energy=55.539846647430004 pbc="F F F"
In       0.00000000       0.00000000       0.00000000       0.00000000       0.00000000     -82.50916290
In       0.00000000       0.00000000       0.99393939       0.00000000       0.00000000      82.50916290
2
Properties=species:S:1:pos:R:3:forces:R:3 energy=48.573416034052656 pbc="F F F"
In       0.00000000       0.00000000       0.00000000       0.00000000       0.00000000    -137.56597900
In       0.00000000       0.00000000       1.05353535       0.00000000       0.00000000     137.56597900
2
Properties=species:S:1:pos:R:3:forces:R:3 energy=38.71382747673809 pbc="F F F"
In       0.00000000       0.00000000       0.00000000       0.00000000       0.00000000    -182.67195129
In       0.00000000       0.00000000       1.11313131       0.00000000       0.00000000     182.67195129
2
Properties=species:S:1:pos:R:3:forces:R:3 energy=27.858663990426408 pbc="F F F"
In       0.00000000       0.00000000       0.00000000       0.00000000       0.00000000    -181.10968018
In       0.00000000       0.00000000       1.17272727       0.00000000       0.00000000     181.10968018
2
Properties=species:S:1:pos:R:3:forces:R:3 energy=16.440474101234642 pbc="F F F"
In       0.00000000       0.00000000       0.00000000       0.00000000       0.00000000    -202.92037964
In       0.00000000       0.00000000       1.23232323       0.00000000       0.00000000     202.92037964
2
Properties=species:S:1:pos:R:3:forces:R:3 energy=4.794146272958441 pbc="F F F"
In       0.00000000       0.00000000       0.00000000       0.00000000       0.00000000    -178.78701782
In       0.00000000       0.00000000       1.29191919       0.00000000       0.00000000     178.78701782
2
Properties=species:S:1:pos:R:3:forces:R:3 energy=-4.4559145792560795 pbc="F F F"
In       0.00000000       0.00000000       0.00000000       0.00000000       0.00000000    -132.11399841
In       0.00000000       0.00000000       1.35151515       0.00000000       0.00000000     132.11399841
2
Properties=species:S:1:pos:R:3:forces:R:3 energy=-11.17824253562413 pbc="F F F"
In       0.00000000       0.00000000       0.00000000       0.00000000       0.00000000     -95.67449951
In       0.00000000       0.00000000       1.41111111       0.00000000       0.00000000      95.67449951
2
Properties=species:S:1:pos:R:3:forces:R:3 energy=-16.09629301809526 pbc="F F F"
In       0.00000000       0.00000000       0.00000000       0.00000000       0.00000000     -71.28432465
In       0.00000000       0.00000000       1.47070707       0.00000000       0.00000000      71.28432465
2
Properties=species:S:1:pos:R:3:forces:R:3 energy=-19.8967477614347 pbc="F F F"
In       0.00000000       0.00000000       0.00000000       0.00000000       0.00000000     -57.85728073
In       0.00000000       0.00000000       1.53030303       0.00000000       0.00000000      57.85728073
2
Properties=species:S:1:pos:R:3:forces:R:3 energy=-23.12214635190465 pbc="F F F"
In       0.00000000       0.00000000       0.00000000       0.00000000       0.00000000     -50.97616196
In       0.00000000       0.00000000       1.58989899       0.00000000       0.00000000      50.97616196
2
Properties=species:S:1:pos:R:3:forces:R:3 energy=-26.004592123820185 pbc="F F F"
In       0.00000000       0.00000000       0.00000000       0.00000000       0.00000000     -45.82145309
In       0.00000000       0.00000000       1.64949495       0.00000000       0.00000000      45.82145309
2
Properties=species:S:1:pos:R:3:forces:R:3 energy=-28.58190778393891 pbc="F F F"
In       0.00000000       0.00000000       0.00000000       0.00000000       0.00000000     -40.62484741
In       0.00000000       0.00000000       1.70909091       0.00000000       0.00000000      40.62484741
2
Properties=species:S:1:pos:R:3:forces:R:3 energy=-30.842777018567148 pbc="F F F"
In       0.00000000       0.00000000       0.00000000       0.00000000       0.00000000     -35.24538803
In       0.00000000       0.00000000       1.76868687       0.00000000       0.00000000      35.24538803
2
Properties=species:S:1:pos:R:3:forces:R:3 energy=-32.78734285984543 pbc="F F F"
In       0.00000000       0.00000000       0.00000000       0.00000000       0.00000000     -30.08982086
In       0.00000000       0.00000000       1.82828283       0.00000000       0.00000000      30.08982086
2
Properties=species:S:1:pos:R:3:forces:R:3 energy=-34.44176457051411 pbc="F F F"
In       0.00000000       0.00000000       0.00000000       0.00000000       0.00000000     -25.55427170
In       0.00000000       0.00000000       1.88787879       0.00000000       0.00000000      25.55427170
2
Properties=species:S:1:pos:R:3:forces:R:3 energy=-35.84813159305457 pbc="F F F"
In       0.00000000       0.00000000       0.00000000       0.00000000       0.00000000     -21.76214218
In       0.00000000       0.00000000       1.94747475       0.00000000       0.00000000      21.76214218
2
Properties=species:S:1:pos:R:3:forces:R:3 energy=-37.048348353963 pbc="F F F"
In       0.00000000       0.00000000       0.00000000       0.00000000       0.00000000     -18.60666466
In       0.00000000       0.00000000       2.00707071       0.00000000       0.00000000      18.60666466
2
Properties=species:S:1:pos:R:3:forces:R:3 energy=-38.07461469226769 pbc="F F F"
In       0.00000000       0.00000000       0.00000000       0.00000000       0.00000000     -15.89114380
In       0.00000000       0.00000000       2.06666667       0.00000000       0.00000000      15.89114380
2
Properties=species:S:1:pos:R:3:forces:R:3 energy=-38.947739754626134 pbc="F F F"
In       0.00000000       0.00000000       0.00000000       0.00000000       0.00000000     -13.44614792
In       0.00000000       0.00000000       2.12626263       0.00000000       0.00000000      13.44614792
2
Properties=species:S:1:pos:R:3:forces:R:3 energy=-39.68117796879073 pbc="F F F"
In       0.00000000       0.00000000       0.00000000       0.00000000       0.00000000     -11.20053673
In       0.00000000       0.00000000       2.18585859       0.00000000       0.00000000      11.20053673
2
Properties=species:S:1:pos:R:3:forces:R:3 energy=-40.28709820715948 pbc="F F F"
In       0.00000000       0.00000000       0.00000000       0.00000000       0.00000000      -9.17396641
In       0.00000000       0.00000000       2.24545455       0.00000000       0.00000000       9.17396641
2
Properties=species:S:1:pos:R:3:forces:R:3 energy=-40.77982467697176 pbc="F F F"
In       0.00000000       0.00000000       0.00000000       0.00000000       0.00000000      -7.40659761
In       0.00000000       0.00000000       2.30505051       0.00000000       0.00000000       7.40659761
2
Properties=species:S:1:pos:R:3:forces:R:3 energy=-41.17513881724538 pbc="F F F"
In       0.00000000       0.00000000       0.00000000       0.00000000       0.00000000      -5.90140820
In       0.00000000       0.00000000       2.36464646       0.00000000       0.00000000       5.90140820
2
Properties=species:S:1:pos:R:3:forces:R:3 energy=-41.48771586735568 pbc="F F F"
In       0.00000000       0.00000000       0.00000000       0.00000000       0.00000000      -4.62216759
In       0.00000000       0.00000000       2.42424242       0.00000000       0.00000000       4.62216759
2
Properties=species:S:1:pos:R:3:forces:R:3 energy=-41.72965236458851 pbc="F F F"
In       0.00000000       0.00000000       0.00000000       0.00000000       0.00000000      -3.52429605
In       0.00000000       0.00000000       2.48383838       0.00000000       0.00000000       3.52429605
2
Properties=species:S:1:pos:R:3:forces:R:3 energy=-41.91082862828761 pbc="F F F"
In       0.00000000       0.00000000       0.00000000       0.00000000       0.00000000      -2.58045387
In       0.00000000       0.00000000       2.54343434       0.00000000       0.00000000       2.58045387
2
Properties=species:S:1:pos:R:3:forces:R:3 energy=-42.04014849607619 pbc="F F F"
In       0.00000000       0.00000000       0.00000000       0.00000000       0.00000000      -1.78426039
In       0.00000000       0.00000000       2.60303030       0.00000000       0.00000000       1.78426039
2
Properties=species:S:1:pos:R:3:forces:R:3 energy=-42.12649305519413 pbc="F F F"
In       0.00000000       0.00000000       0.00000000       0.00000000       0.00000000      -1.13860536
In       0.00000000       0.00000000       2.66262626       0.00000000       0.00000000       1.13860536
2
Properties=species:S:1:pos:R:3:forces:R:3 energy=-42.178815989338766 pbc="F F F"
In       0.00000000       0.00000000       0.00000000       0.00000000       0.00000000      -0.64126647
In       0.00000000       0.00000000       2.72222222       0.00000000       0.00000000       0.64126647
2
Properties=species:S:1:pos:R:3:forces:R:3 energy=-42.20556751661219 pbc="F F F"
In       0.00000000       0.00000000       0.00000000       0.00000000       0.00000000      -0.27640665
In       0.00000000       0.00000000       2.78181818       0.00000000       0.00000000       0.27640665
2
Properties=species:S:1:pos:R:3:forces:R:3 energy=-42.213813112881496 pbc="F F F"
In       0.00000000       0.00000000       0.00000000       0.00000000       0.00000000      -0.01448575
In       0.00000000       0.00000000       2.84141414       0.00000000       0.00000000       0.01448575
2
Properties=species:S:1:pos:R:3:forces:R:3 energy=-42.20861543182725 pbc="F F F"
In       0.00000000       0.00000000       0.00000000       0.00000000       0.00000000       0.18072507
In       0.00000000       0.00000000       2.90101010       0.00000000       0.00000000      -0.18072507
2
Properties=species:S:1:pos:R:3:forces:R:3 energy=-42.192942713403355 pbc="F F F"
In       0.00000000       0.00000000       0.00000000       0.00000000       0.00000000       0.34174407
In       0.00000000       0.00000000       2.96060606       0.00000000       0.00000000      -0.34174407
2
Properties=species:S:1:pos:R:3:forces:R:3 energy=-42.16814583878298 pbc="F F F"
In       0.00000000       0.00000000       0.00000000       0.00000000       0.00000000       0.48894590
In       0.00000000       0.00000000       3.02020202       0.00000000       0.00000000      -0.48894590
2
Properties=species:S:1:pos:R:3:forces:R:3 energy=-42.13481357015212 pbc="F F F"
In       0.00000000       0.00000000       0.00000000       0.00000000       0.00000000       0.62820458
In       0.00000000       0.00000000       3.07979798       0.00000000       0.00000000      -0.62820458
2
Properties=species:S:1:pos:R:3:forces:R:3 energy=-42.09351777012837 pbc="F F F"
In       0.00000000       0.00000000       0.00000000       0.00000000       0.00000000       0.75490630
In       0.00000000       0.00000000       3.13939394       0.00000000       0.00000000      -0.75490630
2
Properties=species:S:1:pos:R:3:forces:R:3 energy=-42.045253624380486 pbc="F F F"
In       0.00000000       0.00000000       0.00000000       0.00000000       0.00000000       0.86072356
In       0.00000000       0.00000000       3.19898990       0.00000000       0.00000000      -0.86072356
2
Properties=species:S:1:pos:R:3:forces:R:3 energy=-41.99147414100633 pbc="F F F"
In       0.00000000       0.00000000       0.00000000       0.00000000       0.00000000       0.93909842
In       0.00000000       0.00000000       3.25858586       0.00000000       0.00000000      -0.93909842
2
Properties=species:S:1:pos:R:3:forces:R:3 energy=-41.93391425615364 pbc="F F F"
In       0.00000000       0.00000000       0.00000000       0.00000000       0.00000000       0.98763925
In       0.00000000       0.00000000       3.31818182       0.00000000       0.00000000      -0.98763925
2
Properties=species:S:1:pos:R:3:forces:R:3 energy=-41.87431709244369 pbc="F F F"
In       0.00000000       0.00000000       0.00000000       0.00000000       0.00000000       1.00811815
In       0.00000000       0.00000000       3.37777778       0.00000000       0.00000000      -1.00811815
2
Properties=species:S:1:pos:R:3:forces:R:3 energy=-41.814218780218674 pbc="F F F"
In       0.00000000       0.00000000       0.00000000       0.00000000       0.00000000       1.00531507
In       0.00000000       0.00000000       3.43737374       0.00000000       0.00000000      -1.00531507
2
Properties=species:S:1:pos:R:3:forces:R:3 energy=-41.754826553844936 pbc="F F F"
In       0.00000000       0.00000000       0.00000000       0.00000000       0.00000000       0.98563242
In       0.00000000       0.00000000       3.49696970       0.00000000       0.00000000      -0.98563242
2
Properties=species:S:1:pos:R:3:forces:R:3 energy=-41.696936580149654 pbc="F F F"
In       0.00000000       0.00000000       0.00000000       0.00000000       0.00000000       0.95609796
In       0.00000000       0.00000000       3.55656566       0.00000000       0.00000000      -0.95609796
2
Properties=species:S:1:pos:R:3:forces:R:3 energy=-41.64092479309017 pbc="F F F"
In       0.00000000       0.00000000       0.00000000       0.00000000       0.00000000       0.92358321
In       0.00000000       0.00000000       3.61616162       0.00000000       0.00000000      -0.92358321
2
Properties=species:S:1:pos:R:3:forces:R:3 energy=-41.58679397812667 pbc="F F F"
In       0.00000000       0.00000000       0.00000000       0.00000000       0.00000000       0.89388281
In       0.00000000       0.00000000       3.67575758       0.00000000       0.00000000      -0.89388281
2
Properties=species:S:1:pos:R:3:forces:R:3 energy=-41.53424852946862 pbc="F F F"
In       0.00000000       0.00000000       0.00000000       0.00000000       0.00000000       0.87083584
In       0.00000000       0.00000000       3.73535354       0.00000000       0.00000000      -0.87083584
2
Properties=species:S:1:pos:R:3:forces:R:3 energy=-41.48283486432997 pbc="F F F"
In       0.00000000       0.00000000       0.00000000       0.00000000       0.00000000       0.85595560
In       0.00000000       0.00000000       3.79494949       0.00000000       0.00000000      -0.85595560
2
Properties=species:S:1:pos:R:3:forces:R:3 energy=-41.43207402975244 pbc="F F F"
In       0.00000000       0.00000000       0.00000000       0.00000000       0.00000000       0.84865522
In       0.00000000       0.00000000       3.85454545       0.00000000       0.00000000      -0.84865522
2
Properties=species:S:1:pos:R:3:forces:R:3 energy=-41.38156899722181 pbc="F F F"
In       0.00000000       0.00000000       0.00000000       0.00000000       0.00000000       0.84689575
In       0.00000000       0.00000000       3.91414141       0.00000000       0.00000000      -0.84689575
2
Properties=species:S:1:pos:R:3:forces:R:3 energy=-41.33107395286359 pbc="F F F"
In       0.00000000       0.00000000       0.00000000       0.00000000       0.00000000       0.84795135
In       0.00000000       0.00000000       3.97373737       0.00000000       0.00000000      -0.84795135
2
Properties=species:S:1:pos:R:3:forces:R:3 energy=-41.28049858889751 pbc="F F F"
In       0.00000000       0.00000000       0.00000000       0.00000000       0.00000000       0.84910786
In       0.00000000       0.00000000       4.03333333       0.00000000       0.00000000      -0.84910786
2
Properties=species:S:1:pos:R:3:forces:R:3 energy=-41.22990849803137 pbc="F F F"
In       0.00000000       0.00000000       0.00000000       0.00000000       0.00000000       0.84816021
In       0.00000000       0.00000000       4.09292929       0.00000000       0.00000000      -0.84816021
2
Properties=species:S:1:pos:R:3:forces:R:3 energy=-41.17947572178079 pbc="F F F"
In       0.00000000       0.00000000       0.00000000       0.00000000       0.00000000       0.84369564
In       0.00000000       0.00000000       4.15252525       0.00000000       0.00000000      -0.84369564
2
Properties=species:S:1:pos:R:3:forces:R:3 energy=-41.12942932571539 pbc="F F F"
In       0.00000000       0.00000000       0.00000000       0.00000000       0.00000000       0.83511710
In       0.00000000       0.00000000       4.21212121       0.00000000       0.00000000      -0.83511710
2
Properties=species:S:1:pos:R:3:forces:R:3 energy=-41.080017311090856 pbc="F F F"
In       0.00000000       0.00000000       0.00000000       0.00000000       0.00000000       0.82252306
In       0.00000000       0.00000000       4.27171717       0.00000000       0.00000000      -0.82252306
2
Properties=species:S:1:pos:R:3:forces:R:3 energy=-41.03146090658993 pbc="F F F"
In       0.00000000       0.00000000       0.00000000       0.00000000       0.00000000       0.80645961
In       0.00000000       0.00000000       4.33131313       0.00000000       0.00000000      -0.80645961
2
Properties=species:S:1:pos:R:3:forces:R:3 energy=-40.98394694526351 pbc="F F F"
In       0.00000000       0.00000000       0.00000000       0.00000000       0.00000000       0.78764355
In       0.00000000       0.00000000       4.39090909       0.00000000       0.00000000      -0.78764355
2
Properties=species:S:1:pos:R:3:forces:R:3 energy=-40.93762409418293 pbc="F F F"
In       0.00000000       0.00000000       0.00000000       0.00000000       0.00000000       0.76669419
In       0.00000000       0.00000000       4.45050505       0.00000000       0.00000000      -0.76669419
2
Properties=species:S:1:pos:R:3:forces:R:3 energy=-40.89259905241392 pbc="F F F"
In       0.00000000       0.00000000       0.00000000       0.00000000       0.00000000       0.74396354
In       0.00000000       0.00000000       4.51010101       0.00000000       0.00000000      -0.74396354
2
Properties=species:S:1:pos:R:3:forces:R:3 energy=-40.84898230996085 pbc="F F F"
In       0.00000000       0.00000000       0.00000000       0.00000000       0.00000000       0.71939522
In       0.00000000       0.00000000       4.56969697       0.00000000       0.00000000      -0.71939522
2
Properties=species:S:1:pos:R:3:forces:R:3 energy=-40.806899639375786 pbc="F F F"
In       0.00000000       0.00000000       0.00000000       0.00000000       0.00000000       0.69249135
In       0.00000000       0.00000000       4.62929293       0.00000000       0.00000000      -0.69249135
2
Properties=species:S:1:pos:R:3:forces:R:3 energy=-40.76650734742001 pbc="F F F"
In       0.00000000       0.00000000       0.00000000       0.00000000       0.00000000       0.66245520
In       0.00000000       0.00000000       4.68888889       0.00000000       0.00000000      -0.66245520
2
Properties=species:S:1:pos:R:3:forces:R:3 energy=-40.72801897873679 pbc="F F F"
In       0.00000000       0.00000000       0.00000000       0.00000000       0.00000000       0.62840623
In       0.00000000       0.00000000       4.74848485       0.00000000       0.00000000      -0.62840623
2
Properties=species:S:1:pos:R:3:forces:R:3 energy=-40.691697678537324 pbc="F F F"
In       0.00000000       0.00000000       0.00000000       0.00000000       0.00000000       0.58986616
In       0.00000000       0.00000000       4.80808081       0.00000000       0.00000000      -0.58986616
2
Properties=species:S:1:pos:R:3:forces:R:3 energy=-40.657795201793995 pbc="F F F"
In       0.00000000       0.00000000       0.00000000       0.00000000       0.00000000       0.54719490
In       0.00000000       0.00000000       4.86767677       0.00000000       0.00000000      -0.54719490
2
Properties=species:S:1:pos:R:3:forces:R:3 energy=-40.626525171553666 pbc="F F F"
In       0.00000000       0.00000000       0.00000000       0.00000000       0.00000000       0.50191879
In       0.00000000       0.00000000       4.92727273       0.00000000       0.00000000      -0.50191879
2
Properties=species:S:1:pos:R:3:forces:R:3 energy=-40.597971557881564 pbc="F F F"
In       0.00000000       0.00000000       0.00000000       0.00000000       0.00000000       0.45667022
In       0.00000000       0.00000000       4.98686869       0.00000000       0.00000000      -0.45667022
2
Properties=species:S:1:pos:R:3:forces:R:3 energy=-40.572035264971944 pbc="F F F"
In       0.00000000       0.00000000       0.00000000       0.00000000       0.00000000       0.41459081
In       0.00000000       0.00000000       5.04646465       0.00000000       0.00000000      -0.41459081
2
Properties=species:S:1:pos:R:3:forces:R:3 energy=-40.548441760542595 pbc="F F F"
In       0.00000000       0.00000000       0.00000000       0.00000000       0.00000000       0.37824908
In       0.00000000       0.00000000       5.10606061       0.00000000       0.00000000      -0.37824908
2
Properties=species:S:1:pos:R:3:forces:R:3 energy=-40.52681737611585 pbc="F F F"
In       0.00000000       0.00000000       0.00000000       0.00000000       0.00000000       0.34834230
In       0.00000000       0.00000000       5.16565657       0.00000000       0.00000000      -0.34834230
2
Properties=species:S:1:pos:R:3:forces:R:3 energy=-40.50683426947441 pbc="F F F"
In       0.00000000       0.00000000       0.00000000       0.00000000       0.00000000       0.32257327
In       0.00000000       0.00000000       5.22525253       0.00000000       0.00000000      -0.32257327
2
Properties=species:S:1:pos:R:3:forces:R:3 energy=-40.48839733690783 pbc="F F F"
In       0.00000000       0.00000000       0.00000000       0.00000000       0.00000000       0.29549664
In       0.00000000       0.00000000       5.28484848       0.00000000       0.00000000      -0.29549664
2
Properties=species:S:1:pos:R:3:forces:R:3 energy=-40.47175484656081 pbc="F F F"
In       0.00000000       0.00000000       0.00000000       0.00000000       0.00000000       0.26173297
In       0.00000000       0.00000000       5.34444444       0.00000000       0.00000000      -0.26173297
2
Properties=species:S:1:pos:R:3:forces:R:3 energy=-40.457254294640386 pbc="F F F"
In       0.00000000       0.00000000       0.00000000       0.00000000       0.00000000       0.22583617
In       0.00000000       0.00000000       5.40404040       0.00000000       0.00000000      -0.22583617
2
Properties=species:S:1:pos:R:3:forces:R:3 energy=-40.4444726552313 pbc="F F F"
In       0.00000000       0.00000000       0.00000000       0.00000000       0.00000000       0.20745507
In       0.00000000       0.00000000       5.46363636       0.00000000       0.00000000      -0.20745507
2
Properties=species:S:1:pos:R:3:forces:R:3 energy=-40.43212481805819 pbc="F F F"
In       0.00000000       0.00000000       0.00000000       0.00000000       0.00000000       0.20773529
In       0.00000000       0.00000000       5.52323232       0.00000000       0.00000000      -0.20773529
2
Properties=species:S:1:pos:R:3:forces:R:3 energy=-40.42007012716684 pbc="F F F"
In       0.00000000       0.00000000       0.00000000       0.00000000       0.00000000       0.19201207
In       0.00000000       0.00000000       5.58282828       0.00000000       0.00000000      -0.19201207
2
Properties=species:S:1:pos:R:3:forces:R:3 energy=-40.40963661197678 pbc="F F F"
In       0.00000000       0.00000000       0.00000000       0.00000000       0.00000000       0.15767942
In       0.00000000       0.00000000       5.64242424       0.00000000       0.00000000      -0.15767942
2
Properties=species:S:1:pos:R:3:forces:R:3 energy=-40.40092400027428 pbc="F F F"
In       0.00000000       0.00000000       0.00000000       0.00000000       0.00000000       0.13995419
In       0.00000000       0.00000000       5.70202020       0.00000000       0.00000000      -0.13995419
2
Properties=species:S:1:pos:R:3:forces:R:3 energy=-40.39233069654337 pbc="F F F"
In       0.00000000       0.00000000       0.00000000       0.00000000       0.00000000       0.15112695
In       0.00000000       0.00000000       5.76161616       0.00000000       0.00000000      -0.15112695
2
Properties=species:S:1:pos:R:3:forces:R:3 energy=-40.38329271242778 pbc="F F F"
In       0.00000000       0.00000000       0.00000000       0.00000000       0.00000000       0.14389522
In       0.00000000       0.00000000       5.82121212       0.00000000       0.00000000      -0.14389522
2
Properties=species:S:1:pos:R:3:forces:R:3 energy=-40.37618720937804 pbc="F F F"
In       0.00000000       0.00000000       0.00000000       0.00000000       0.00000000       0.08980881
In       0.00000000       0.00000000       5.88080808       0.00000000       0.00000000      -0.08980881
2
Properties=species:S:1:pos:R:3:forces:R:3 energy=-40.37270470808857 pbc="F F F"
In       0.00000000       0.00000000       0.00000000       0.00000000       0.00000000       0.02901355
In       0.00000000       0.00000000       5.94040404       0.00000000       0.00000000      -0.02901355
2
Properties=species:S:1:pos:R:3:forces:R:3 energy=-40.371968432450366 pbc="F F F"
In       0.00000000       0.00000000       0.00000000       0.00000000       0.00000000       0.00409678
In       0.00000000       0.00000000       6.00000000       0.00000000       0.00000000      -0.00409678
