2
Properties=species:S:1:pos:R:3:forces:R:3 energy=-200914.3242596369 pbc="F F F"
Ir       0.00000000       0.00000000       0.00000000       0.00000000       0.00000000 -202563.23437500
Ir       0.00000000       0.00000000       0.18000000       0.00000000       0.00000000  202563.23437500
2
Properties=species:S:1:pos:R:3:forces:R:3 energy=-203067.8711346369 pbc="F F F"
Ir       0.00000000       0.00000000       0.00000000       0.00000000       0.00000000  103025.84375000
Ir       0.00000000       0.00000000       0.23878788       0.00000000       0.00000000 -103025.84375000
2
Properties=species:S:1:pos:R:3:forces:R:3 energy=-189554.8711346369 pbc="F F F"
Ir       0.00000000       0.00000000       0.00000000       0.00000000       0.00000000  359641.46875000
Ir       0.00000000       0.00000000       0.29757576       0.00000000       0.00000000 -359641.46875000
2
Properties=species:S:1:pos:R:3:forces:R:3 energy=-160406.54300963532 pbc="F F F"
Ir       0.00000000       0.00000000       0.00000000       0.00000000       0.00000000  630898.68750000
Ir       0.00000000       0.00000000       0.35636364       0.00000000       0.00000000 -630898.68750000
2
Properties=species:S:1:pos:R:3:forces:R:3 energy=-116623.25394713531 pbc="F F F"
Ir       0.00000000       0.00000000       0.00000000       0.00000000       0.00000000  835922.56250000
Ir       0.00000000       0.00000000       0.41515152       0.00000000       0.00000000 -835922.56250000
2
Properties=species:S:1:pos:R:3:forces:R:3 energy=-66381.35550963531 pbc="F F F"
Ir       0.00000000       0.00000000       0.00000000       0.00000000       0.00000000  819333.87500000
Ir       0.00000000       0.00000000       0.47393939       0.00000000       0.00000000 -819333.87500000
2
Properties=species:S:1:pos:R:3:forces:R:3 energy=-15672.490275257143 pbc="F F F"
Ir       0.00000000       0.00000000       0.00000000       0.00000000       0.00000000  654355.18750000
Ir       0.00000000       0.00000000       0.53272727       0.00000000       0.00000000 -654355.18750000
2
Properties=species:S:1:pos:R:3:forces:R:3 energy=5506.557576308524 pbc="F F F"
Ir       0.00000000       0.00000000       0.00000000       0.00000000       0.00000000   97578.18750000
Ir       0.00000000       0.00000000       0.59151515       0.00000000       0.00000000  -97578.18750000
2
Properties=species:S:1:pos:R:3:forces:R:3 energy=3543.3222247523604 pbc="F F F"
Ir       0.00000000       0.00000000       0.00000000       0.00000000       0.00000000  -88242.78906250
Ir       0.00000000       0.00000000       0.65030303       0.00000000       0.00000000   88242.78906250
2
Properties=species:S:1:pos:R:3:forces:R:3 energy=510.7107440489731 pbc="F F F"
Ir       0.00000000       0.00000000       0.00000000       0.00000000       0.00000000  -19966.22265625
Ir       0.00000000       0.00000000       0.70909091       0.00000000       0.00000000   19966.22265625
2
Properties=species:S:1:pos:R:3:forces:R:3 energy=19.56989781157883 pbc="F F F"
Ir       0.00000000       0.00000000       0.00000000       0.00000000       0.00000000     877.90209961
Ir       0.00000000       0.00000000       0.76787879       0.00000000       0.00000000    -877.90209961
2
Properties=species:S:1:pos:R:3:forces:R:3 energy=25.500790777297567 pbc="F F F"
Ir       0.00000000       0.00000000       0.00000000       0.00000000       0.00000000    -292.66928101
Ir       0.00000000       0.00000000       0.82666667       0.00000000       0.00000000     292.66928101
2
Properties=species:S:1:pos:R:3:forces:R:3 energy=-3.609934595440155 pbc="F F F"
Ir       0.00000000       0.00000000       0.00000000       0.00000000       0.00000000    -653.95849609
Ir       0.00000000       0.00000000       0.88545455       0.00000000       0.00000000     653.95849609
2
Properties=species:S:1:pos:R:3:forces:R:3 energy=-47.200384839539794 pbc="F F F"
Ir       0.00000000       0.00000000       0.00000000       0.00000000       0.00000000    -781.07073975
Ir       0.00000000       0.00000000       0.94424242       0.00000000       0.00000000     781.07073975
2
Properties=species:S:1:pos:R:3:forces:R:3 energy=-91.52329509135689 pbc="F F F"
Ir       0.00000000       0.00000000       0.00000000       0.00000000       0.00000000    -485.23144531
Ir       0.00000000       0.00000000       1.00303030       0.00000000       0.00000000     485.23144531
2
Properties=species:S:1:pos:R:3:forces:R:3 energy=-87.26578005854805 pbc="F F F"
Ir       0.00000000       0.00000000       0.00000000       0.00000000       0.00000000     130.51875305
Ir       0.00000000       0.00000000       1.06181818       0.00000000       0.00000000    -130.51875305
2
Properties=species:S:1:pos:R:3:forces:R:3 energy=-82.09855125686336 pbc="F F F"
Ir       0.00000000       0.00000000       0.00000000       0.00000000       0.00000000      42.78618240
Ir       0.00000000       0.00000000       1.12060606       0.00000000       0.00000000     -42.78618240
2
Properties=species:S:1:pos:R:3:forces:R:3 energy=-81.03238901285592 pbc="F F F"
Ir       0.00000000       0.00000000       0.00000000       0.00000000       0.00000000      -5.02330256
Ir       0.00000000       0.00000000       1.17939394       0.00000000       0.00000000       5.02330256
2
Properties=species:S:1:pos:R:3:forces:R:3 energy=-82.55227867016866 pbc="F F F"
Ir       0.00000000       0.00000000       0.00000000       0.00000000       0.00000000     -33.56848526
Ir       0.00000000       0.00000000       1.23818182       0.00000000       0.00000000      33.56848526
2
Properties=species:S:1:pos:R:3:forces:R:3 energy=-83.85018341668284 pbc="F F F"
Ir       0.00000000       0.00000000       0.00000000       0.00000000       0.00000000      -9.66553593
Ir       0.00000000       0.00000000       1.29696970       0.00000000       0.00000000       9.66553593
2
Properties=species:S:1:pos:R:3:forces:R:3 energy=-84.00049746976113 pbc="F F F"
Ir       0.00000000       0.00000000       0.00000000       0.00000000       0.00000000       1.65157878
Ir       0.00000000       0.00000000       1.35575758       0.00000000       0.00000000      -1.65157878
2
Properties=species:S:1:pos:R:3:forces:R:3 energy=-83.89627196340125 pbc="F F F"
Ir       0.00000000       0.00000000       0.00000000       0.00000000       0.00000000       0.18505476
Ir       0.00000000       0.00000000       1.41454545       0.00000000       0.00000000      -0.18505476
2
Properties=species:S:1:pos:R:3:forces:R:3 energy=-84.15262682218174 pbc="F F F"
Ir       0.00000000       0.00000000       0.00000000       0.00000000       0.00000000      -9.71020889
Ir       0.00000000       0.00000000       1.47333333       0.00000000       0.00000000       9.71020889
2
Properties=species:S:1:pos:R:3:forces:R:3 energy=-85.0304796906699 pbc="F F F"
Ir       0.00000000       0.00000000       0.00000000       0.00000000       0.00000000     -19.52068520
Ir       0.00000000       0.00000000       1.53212121       0.00000000       0.00000000      19.52068520
2
Properties=species:S:1:pos:R:3:forces:R:3 energy=-86.36515771017564 pbc="F F F"
Ir       0.00000000       0.00000000       0.00000000       0.00000000       0.00000000     -25.28370667
Ir       0.00000000       0.00000000       1.59090909       0.00000000       0.00000000      25.28370667
2
Properties=species:S:1:pos:R:3:forces:R:3 energy=-87.94451792448368 pbc="F F F"
Ir       0.00000000       0.00000000       0.00000000       0.00000000       0.00000000     -27.97682571
Ir       0.00000000       0.00000000       1.64969697       0.00000000       0.00000000      27.97682571
2
Properties=species:S:1:pos:R:3:forces:R:3 energy=-89.59432785781145 pbc="F F F"
Ir       0.00000000       0.00000000       0.00000000       0.00000000       0.00000000     -27.60184669
Ir       0.00000000       0.00000000       1.70848485       0.00000000       0.00000000      27.60184669
2
Properties=species:S:1:pos:R:3:forces:R:3 energy=-91.12855238637916 pbc="F F F"
Ir       0.00000000       0.00000000       0.00000000       0.00000000       0.00000000     -24.15485001
Ir       0.00000000       0.00000000       1.76727273       0.00000000       0.00000000      24.15485001
2
Properties=species:S:1:pos:R:3:forces:R:3 energy=-92.39892194952526 pbc="F F F"
Ir       0.00000000       0.00000000       0.00000000       0.00000000       0.00000000     -18.90694237
Ir       0.00000000       0.00000000       1.82606061       0.00000000       0.00000000      18.90694237
2
Properties=species:S:1:pos:R:3:forces:R:3 energy=-93.34722447684454 pbc="F F F"
Ir       0.00000000       0.00000000       0.00000000       0.00000000       0.00000000     -13.40798759
Ir       0.00000000       0.00000000       1.88484848       0.00000000       0.00000000      13.40798759
2
Properties=species:S:1:pos:R:3:forces:R:3 energy=-93.98720091495295 pbc="F F F"
Ir       0.00000000       0.00000000       0.00000000       0.00000000       0.00000000      -8.49966621
Ir       0.00000000       0.00000000       1.94363636       0.00000000       0.00000000       8.49966621
2
Properties=species:S:1:pos:R:3:forces:R:3 energy=-94.36767252290107 pbc="F F F"
Ir       0.00000000       0.00000000       0.00000000       0.00000000       0.00000000      -4.67439175
Ir       0.00000000       0.00000000       2.00242424       0.00000000       0.00000000       4.67439175
2
Properties=species:S:1:pos:R:3:forces:R:3 energy=-94.56670460393751 pbc="F F F"
Ir       0.00000000       0.00000000       0.00000000       0.00000000       0.00000000      -2.34267402
Ir       0.00000000       0.00000000       2.06121212       0.00000000       0.00000000       2.34267402
2
Properties=species:S:1:pos:R:3:forces:R:3 energy=-94.66675028658652 pbc="F F F"
Ir       0.00000000       0.00000000       0.00000000       0.00000000       0.00000000      -1.20159209
Ir       0.00000000       0.00000000       2.12000000       0.00000000       0.00000000       1.20159209
2
Properties=species:S:1:pos:R:3:forces:R:3 energy=-94.71543596103187 pbc="F F F"
Ir       0.00000000       0.00000000       0.00000000       0.00000000       0.00000000      -0.44417882
Ir       0.00000000       0.00000000       2.17878788       0.00000000       0.00000000       0.44417882
2
Properties=species:S:1:pos:R:3:forces:R:3 energy=-94.71330928087833 pbc="F F F"
Ir       0.00000000       0.00000000       0.00000000       0.00000000       0.00000000       0.56598616
Ir       0.00000000       0.00000000       2.23757576       0.00000000       0.00000000      -0.56598616
2
Properties=species:S:1:pos:R:3:forces:R:3 energy=-94.64802008135045 pbc="F F F"
Ir       0.00000000       0.00000000       0.00000000       0.00000000       0.00000000       1.61236417
Ir       0.00000000       0.00000000       2.29636364       0.00000000       0.00000000      -1.61236417
2
Properties=species:S:1:pos:R:3:forces:R:3 energy=-94.53079081197984 pbc="F F F"
Ir       0.00000000       0.00000000       0.00000000       0.00000000       0.00000000       2.34508991
Ir       0.00000000       0.00000000       2.35515152       0.00000000       0.00000000      -2.34508991
2
Properties=species:S:1:pos:R:3:forces:R:3 energy=-94.36642057587805 pbc="F F F"
Ir       0.00000000       0.00000000       0.00000000       0.00000000       0.00000000       3.36052775
Ir       0.00000000       0.00000000       2.41393939       0.00000000       0.00000000      -3.36052775
2
Properties=species:S:1:pos:R:3:forces:R:3 energy=-94.13067465654254 pbc="F F F"
Ir       0.00000000       0.00000000       0.00000000       0.00000000       0.00000000       4.51160574
Ir       0.00000000       0.00000000       2.47272727       0.00000000       0.00000000      -4.51160574
2
Properties=species:S:1:pos:R:3:forces:R:3 energy=-93.88035256601992 pbc="F F F"
Ir       0.00000000       0.00000000       0.00000000       0.00000000       0.00000000       3.52692485
Ir       0.00000000       0.00000000       2.53151515       0.00000000       0.00000000      -3.52692485
2
Properties=species:S:1:pos:R:3:forces:R:3 energy=-93.74910179356056 pbc="F F F"
Ir       0.00000000       0.00000000       0.00000000       0.00000000       0.00000000       0.96782804
Ir       0.00000000       0.00000000       2.59030303       0.00000000       0.00000000      -0.96782804
2
Properties=species:S:1:pos:R:3:forces:R:3 energy=-93.7359999894872 pbc="F F F"
Ir       0.00000000       0.00000000       0.00000000       0.00000000       0.00000000      -0.18157788
Ir       0.00000000       0.00000000       2.64909091       0.00000000       0.00000000       0.18157788
2
Properties=species:S:1:pos:R:3:forces:R:3 energy=-93.73947361971678 pbc="F F F"
Ir       0.00000000       0.00000000       0.00000000       0.00000000       0.00000000       0.22845927
Ir       0.00000000       0.00000000       2.70787879       0.00000000       0.00000000      -0.22845927
2
Properties=species:S:1:pos:R:3:forces:R:3 energy=-93.69733871772758 pbc="F F F"
Ir       0.00000000       0.00000000       0.00000000       0.00000000       0.00000000       1.26630259
Ir       0.00000000       0.00000000       2.76666667       0.00000000       0.00000000      -1.26630259
2
Properties=species:S:1:pos:R:3:forces:R:3 energy=-93.58635592797725 pbc="F F F"
Ir       0.00000000       0.00000000       0.00000000       0.00000000       0.00000000       2.51613903
Ir       0.00000000       0.00000000       2.82545455       0.00000000       0.00000000      -2.51613903
2
Properties=species:S:1:pos:R:3:forces:R:3 energy=-93.40503191228561 pbc="F F F"
Ir       0.00000000       0.00000000       0.00000000       0.00000000       0.00000000       3.58603716
Ir       0.00000000       0.00000000       2.88424242       0.00000000       0.00000000      -3.58603716
2
Properties=species:S:1:pos:R:3:forces:R:3 energy=-93.17547891960159 pbc="F F F"
Ir       0.00000000       0.00000000       0.00000000       0.00000000       0.00000000       4.12129116
Ir       0.00000000       0.00000000       2.94303030       0.00000000       0.00000000      -4.12129116
2
Properties=species:S:1:pos:R:3:forces:R:3 energy=-92.93135336904673 pbc="F F F"
Ir       0.00000000       0.00000000       0.00000000       0.00000000       0.00000000       4.11056709
Ir       0.00000000       0.00000000       3.00181818       0.00000000       0.00000000      -4.11056709
2
Properties=species:S:1:pos:R:3:forces:R:3 energy=-92.69783906260956 pbc="F F F"
Ir       0.00000000       0.00000000       0.00000000       0.00000000       0.00000000       3.80962133
Ir       0.00000000       0.00000000       3.06060606       0.00000000       0.00000000      -3.80962133
2
Properties=species:S:1:pos:R:3:forces:R:3 energy=-92.48418703966537 pbc="F F F"
Ir       0.00000000       0.00000000       0.00000000       0.00000000       0.00000000       3.46563315
Ir       0.00000000       0.00000000       3.11939394       0.00000000       0.00000000      -3.46563315
2
Properties=species:S:1:pos:R:3:forces:R:3 energy=-92.28886483254297 pbc="F F F"
Ir       0.00000000       0.00000000       0.00000000       0.00000000       0.00000000       3.19415641
Ir       0.00000000       0.00000000       3.17818182       0.00000000       0.00000000      -3.19415641
2
Properties=species:S:1:pos:R:3:forces:R:3 energy=-92.1071194583301 pbc="F F F"
Ir       0.00000000       0.00000000       0.00000000       0.00000000       0.00000000       2.99789286
Ir       0.00000000       0.00000000       3.23696970       0.00000000       0.00000000      -2.99789286
2
Properties=species:S:1:pos:R:3:forces:R:3 energy=-91.93591427703524 pbc="F F F"
Ir       0.00000000       0.00000000       0.00000000       0.00000000       0.00000000       2.82581425
Ir       0.00000000       0.00000000       3.29575758       0.00000000       0.00000000      -2.82581425
2
Properties=species:S:1:pos:R:3:forces:R:3 energy=-91.77540165638537 pbc="F F F"
Ir       0.00000000       0.00000000       0.00000000       0.00000000       0.00000000       2.62805414
Ir       0.00000000       0.00000000       3.35454545       0.00000000       0.00000000      -2.62805414
2
Properties=species:S:1:pos:R:3:forces:R:3 energy=-91.62779386578487 pbc="F F F"
Ir       0.00000000       0.00000000       0.00000000       0.00000000       0.00000000       2.38695598
Ir       0.00000000       0.00000000       3.41333333       0.00000000       0.00000000      -2.38695598
2
Properties=species:S:1:pos:R:3:forces:R:3 energy=-91.4953260327274 pbc="F F F"
Ir       0.00000000       0.00000000       0.00000000       0.00000000       0.00000000       2.11695814
Ir       0.00000000       0.00000000       3.47212121       0.00000000       0.00000000      -2.11695814
2
Properties=species:S:1:pos:R:3:forces:R:3 energy=-91.37890576689037 pbc="F F F"
Ir       0.00000000       0.00000000       0.00000000       0.00000000       0.00000000       1.84574175
Ir       0.00000000       0.00000000       3.53090909       0.00000000       0.00000000      -1.84574175
2
Properties=species:S:1:pos:R:3:forces:R:3 energy=-91.27786902267775 pbc="F F F"
Ir       0.00000000       0.00000000       0.00000000       0.00000000       0.00000000       1.59681869
Ir       0.00000000       0.00000000       3.58969697       0.00000000       0.00000000      -1.59681869
2
Properties=species:S:1:pos:R:3:forces:R:3 energy=-91.1904607336525 pbc="F F F"
Ir       0.00000000       0.00000000       0.00000000       0.00000000       0.00000000       1.38313925
Ir       0.00000000       0.00000000       3.64848485       0.00000000       0.00000000      -1.38313925
2
Properties=species:S:1:pos:R:3:forces:R:3 energy=-91.11447569276463 pbc="F F F"
Ir       0.00000000       0.00000000       0.00000000       0.00000000       0.00000000       1.20841730
Ir       0.00000000       0.00000000       3.70727273       0.00000000       0.00000000      -1.20841730
2
Properties=species:S:1:pos:R:3:forces:R:3 energy=-91.04766292293255 pbc="F F F"
Ir       0.00000000       0.00000000       0.00000000       0.00000000       0.00000000       1.07037425
Ir       0.00000000       0.00000000       3.76606061       0.00000000       0.00000000      -1.07037425
2
Properties=species:S:1:pos:R:3:forces:R:3 energy=-90.98801558611582 pbc="F F F"
Ir       0.00000000       0.00000000       0.00000000       0.00000000       0.00000000       0.96348864
Ir       0.00000000       0.00000000       3.82484848       0.00000000       0.00000000      -0.96348864
2
Properties=species:S:1:pos:R:3:forces:R:3 energy=-90.93390067985426 pbc="F F F"
Ir       0.00000000       0.00000000       0.00000000       0.00000000       0.00000000       0.88108337
Ir       0.00000000       0.00000000       3.88363636       0.00000000       0.00000000      -0.88108337
2
Properties=species:S:1:pos:R:3:forces:R:3 energy=-90.8840666872534 pbc="F F F"
Ir       0.00000000       0.00000000       0.00000000       0.00000000       0.00000000       0.81696886
Ir       0.00000000       0.00000000       3.94242424       0.00000000       0.00000000      -0.81696886
2
Properties=species:S:1:pos:R:3:forces:R:3 energy=-90.837582525989 pbc="F F F"
Ir       0.00000000       0.00000000       0.00000000       0.00000000       0.00000000       0.76628703
Ir       0.00000000       0.00000000       4.00121212       0.00000000       0.00000000      -0.76628703
2
Properties=species:S:1:pos:R:3:forces:R:3 energy=-90.79377651948664 pbc="F F F"
Ir       0.00000000       0.00000000       0.00000000       0.00000000       0.00000000       0.72538167
Ir       0.00000000       0.00000000       4.06000000       0.00000000       0.00000000      -0.72538167
2
Properties=species:S:1:pos:R:3:forces:R:3 energy=-90.75216776721679 pbc="F F F"
Ir       0.00000000       0.00000000       0.00000000       0.00000000       0.00000000       0.69112879
Ir       0.00000000       0.00000000       4.11878788       0.00000000       0.00000000      -0.69112879
2
Properties=species:S:1:pos:R:3:forces:R:3 energy=-90.7124508352207 pbc="F F F"
Ir       0.00000000       0.00000000       0.00000000       0.00000000       0.00000000       0.66029876
Ir       0.00000000       0.00000000       4.17757576       0.00000000       0.00000000      -0.66029876
2
Properties=species:S:1:pos:R:3:forces:R:3 energy=-90.67453395060033 pbc="F F F"
Ir       0.00000000       0.00000000       0.00000000       0.00000000       0.00000000       0.62933886
Ir       0.00000000       0.00000000       4.23636364       0.00000000       0.00000000      -0.62933886
2
Properties=species:S:1:pos:R:3:forces:R:3 energy=-90.63852372372244 pbc="F F F"
Ir       0.00000000       0.00000000       0.00000000       0.00000000       0.00000000       0.59461069
Ir       0.00000000       0.00000000       4.29515152       0.00000000       0.00000000      -0.59461069
2
Properties=species:S:1:pos:R:3:forces:R:3 energy=-90.6047556911392 pbc="F F F"
Ir       0.00000000       0.00000000       0.00000000       0.00000000       0.00000000       0.55298465
Ir       0.00000000       0.00000000       4.35393939       0.00000000       0.00000000      -0.55298465
2
Properties=species:S:1:pos:R:3:forces:R:3 energy=-90.57368749614525 pbc="F F F"
Ir       0.00000000       0.00000000       0.00000000       0.00000000       0.00000000       0.50249463
Ir       0.00000000       0.00000000       4.41272727       0.00000000       0.00000000      -0.50249463
2
Properties=species:S:1:pos:R:3:forces:R:3 energy=-90.5458531013231 pbc="F F F"
Ir       0.00000000       0.00000000       0.00000000       0.00000000       0.00000000       0.44301438
Ir       0.00000000       0.00000000       4.47151515       0.00000000       0.00000000      -0.44301438
2
Properties=species:S:1:pos:R:3:forces:R:3 energy=-90.52173312605807 pbc="F F F"
Ir       0.00000000       0.00000000       0.00000000       0.00000000       0.00000000       0.37653297
Ir       0.00000000       0.00000000       4.53030303       0.00000000       0.00000000      -0.37653297
2
Properties=species:S:1:pos:R:3:forces:R:3 energy=-90.50164038582132 pbc="F F F"
Ir       0.00000000       0.00000000       0.00000000       0.00000000       0.00000000       0.30694768
Ir       0.00000000       0.00000000       4.58909091       0.00000000       0.00000000      -0.30694768
2
Properties=species:S:1:pos:R:3:forces:R:3 energy=-90.48560546313136 pbc="F F F"
Ir       0.00000000       0.00000000       0.00000000       0.00000000       0.00000000       0.23934059
Ir       0.00000000       0.00000000       4.64787879       0.00000000       0.00000000      -0.23934059
2
Properties=species:S:1:pos:R:3:forces:R:3 energy=-90.47336145272465 pbc="F F F"
Ir       0.00000000       0.00000000       0.00000000       0.00000000       0.00000000       0.17887157
Ir       0.00000000       0.00000000       4.70666667       0.00000000       0.00000000      -0.17887157
2
Properties=species:S:1:pos:R:3:forces:R:3 energy=-90.46435922034472 pbc="F F F"
Ir       0.00000000       0.00000000       0.00000000       0.00000000       0.00000000       0.12962414
Ir       0.00000000       0.00000000       4.76545455       0.00000000       0.00000000      -0.12962414
2
Properties=species:S:1:pos:R:3:forces:R:3 energy=-90.45785895864432 pbc="F F F"
Ir       0.00000000       0.00000000       0.00000000       0.00000000       0.00000000       0.09368460
Ir       0.00000000       0.00000000       4.82424242       0.00000000       0.00000000      -0.09368460
2
Properties=species:S:1:pos:R:3:forces:R:3 energy=-90.45308278061982 pbc="F F F"
Ir       0.00000000       0.00000000       0.00000000       0.00000000       0.00000000       0.07073119
Ir       0.00000000       0.00000000       4.88303030       0.00000000       0.00000000      -0.07073119
2
Properties=species:S:1:pos:R:3:forces:R:3 energy=-90.44933677804428 pbc="F F F"
Ir       0.00000000       0.00000000       0.00000000       0.00000000       0.00000000       0.05815288
Ir       0.00000000       0.00000000       4.94181818       0.00000000       0.00000000      -0.05815288
2
Properties=species:S:1:pos:R:3:forces:R:3 energy=-90.44612547268089 pbc="F F F"
Ir       0.00000000       0.00000000       0.00000000       0.00000000       0.00000000       0.05172196
Ir       0.00000000       0.00000000       5.00060606       0.00000000       0.00000000      -0.05172196
2
Properties=species:S:1:pos:R:3:forces:R:3 energy=-90.44322810864436 pbc="F F F"
Ir       0.00000000       0.00000000       0.00000000       0.00000000       0.00000000       0.04664019
Ir       0.00000000       0.00000000       5.05939394       0.00000000       0.00000000      -0.04664019
2
Properties=species:S:1:pos:R:3:forces:R:3 energy=-90.44069863735379 pbc="F F F"
Ir       0.00000000       0.00000000       0.00000000       0.00000000       0.00000000       0.03887739
Ir       0.00000000       0.00000000       5.11818182       0.00000000       0.00000000      -0.03887739
2
Properties=species:S:1:pos:R:3:forces:R:3 energy=-90.43875128374223 pbc="F F F"
Ir       0.00000000       0.00000000       0.00000000       0.00000000       0.00000000       0.02646682
Ir       0.00000000       0.00000000       5.17696970       0.00000000       0.00000000      -0.02646682
2
Properties=species:S:1:pos:R:3:forces:R:3 energy=-90.43766135224857 pbc="F F F"
Ir       0.00000000       0.00000000       0.00000000       0.00000000       0.00000000       0.01023579
Ir       0.00000000       0.00000000       5.23575758       0.00000000       0.00000000      -0.01023579
2
Properties=species:S:1:pos:R:3:forces:R:3 energy=-90.43755923078916 pbc="F F F"
Ir       0.00000000       0.00000000       0.00000000       0.00000000       0.00000000      -0.00659963
Ir       0.00000000       0.00000000       5.29454545       0.00000000       0.00000000       0.00659963
2
Properties=species:S:1:pos:R:3:forces:R:3 energy=-90.43836934926607 pbc="F F F"
Ir       0.00000000       0.00000000       0.00000000       0.00000000       0.00000000      -0.02006230
Ir       0.00000000       0.00000000       5.35333333       0.00000000       0.00000000       0.02006230
2
Properties=species:S:1:pos:R:3:forces:R:3 energy=-90.43979490256297 pbc="F F F"
Ir       0.00000000       0.00000000       0.00000000       0.00000000       0.00000000      -0.02721091
Ir       0.00000000       0.00000000       5.41212121       0.00000000       0.00000000       0.02721091
2
Properties=species:S:1:pos:R:3:forces:R:3 energy=-90.44142466602833 pbc="F F F"
Ir       0.00000000       0.00000000       0.00000000       0.00000000       0.00000000      -0.02706121
Ir       0.00000000       0.00000000       5.47090909       0.00000000       0.00000000       0.02706121
2
Properties=species:S:1:pos:R:3:forces:R:3 energy=-90.44285505074083 pbc="F F F"
Ir       0.00000000       0.00000000       0.00000000       0.00000000       0.00000000      -0.02073737
Ir       0.00000000       0.00000000       5.52969697       0.00000000       0.00000000       0.02073737
2
Properties=species:S:1:pos:R:3:forces:R:3 energy=-90.44384267793671 pbc="F F F"
Ir       0.00000000       0.00000000       0.00000000       0.00000000       0.00000000      -0.01356200
Ir       0.00000000       0.00000000       5.58848485       0.00000000       0.00000000       0.01356200
2
Properties=species:S:1:pos:R:3:forces:R:3 energy=-90.44455615536494 pbc="F F F"
Ir       0.00000000       0.00000000       0.00000000       0.00000000       0.00000000      -0.01155442
Ir       0.00000000       0.00000000       5.64727273       0.00000000       0.00000000       0.01155442
2
Properties=species:S:1:pos:R:3:forces:R:3 energy=-90.44519458063411 pbc="F F F"
Ir       0.00000000       0.00000000       0.00000000       0.00000000       0.00000000      -0.00882840
Ir       0.00000000       0.00000000       5.70606061       0.00000000       0.00000000       0.00882840
2
Properties=species:S:1:pos:R:3:forces:R:3 energy=-90.44535429909062 pbc="F F F"
Ir       0.00000000       0.00000000       0.00000000       0.00000000       0.00000000       0.00570750
Ir       0.00000000       0.00000000       5.76484848       0.00000000       0.00000000      -0.00570750
2
Properties=species:S:1:pos:R:3:forces:R:3 energy=-90.44444853477296 pbc="F F F"
Ir       0.00000000       0.00000000       0.00000000       0.00000000       0.00000000       0.02364508
Ir       0.00000000       0.00000000       5.82363636       0.00000000       0.00000000      -0.02364508
2
Properties=species:S:1:pos:R:3:forces:R:3 energy=-90.44295093895477 pbc="F F F"
Ir       0.00000000       0.00000000       0.00000000       0.00000000       0.00000000       0.02380186
Ir       0.00000000       0.00000000       5.88242424       0.00000000       0.00000000      -0.02380186
2
Properties=species:S:1:pos:R:3:forces:R:3 energy=-90.44190733106956 pbc="F F F"
Ir       0.00000000       0.00000000       0.00000000       0.00000000       0.00000000       0.01104006
Ir       0.00000000       0.00000000       5.94121212       0.00000000       0.00000000      -0.01104006
2
Properties=species:S:1:pos:R:3:forces:R:3 energy=-90.44151661786469 pbc="F F F"
Ir       0.00000000       0.00000000       0.00000000       0.00000000       0.00000000       0.00439968
Ir       0.00000000       0.00000000       6.00000000       0.00000000       0.00000000      -0.00439968
