2
Properties=species:S:1:pos:R:3:forces:R:3 energy=21741.758718832225 pbc="F F F"
K        0.00000000       0.00000000       0.00000000       0.00000000       0.00000000  -32934.70703125
K        0.00000000       0.00000000       0.18000000       0.00000000       0.00000000   32934.70703125
2
Properties=species:S:1:pos:R:3:forces:R:3 energy=20463.719656332225 pbc="F F F"
K        0.00000000       0.00000000       0.00000000       0.00000000       0.00000000  -14610.99414062
K        0.00000000       0.00000000       0.23878788       0.00000000       0.00000000   14610.99414062
2
Properties=species:S:1:pos:R:3:forces:R:3 energy=19752.147390707225 pbc="F F F"
K        0.00000000       0.00000000       0.00000000       0.00000000       0.00000000  -10951.98144531
K        0.00000000       0.00000000       0.29757576       0.00000000       0.00000000   10951.98144531
2
Properties=species:S:1:pos:R:3:forces:R:3 energy=19064.567312582225 pbc="F F F"
K        0.00000000       0.00000000       0.00000000       0.00000000       0.00000000  -13136.17285156
K        0.00000000       0.00000000       0.35636364       0.00000000       0.00000000   13136.17285156
2
Properties=species:S:1:pos:R:3:forces:R:3 energy=18139.729421957225 pbc="F F F"
K        0.00000000       0.00000000       0.00000000       0.00000000       0.00000000  -18810.57226562
K        0.00000000       0.00000000       0.41515152       0.00000000       0.00000000   18810.57226562
2
Properties=species:S:1:pos:R:3:forces:R:3 energy=16806.741140707225 pbc="F F F"
K        0.00000000       0.00000000       0.00000000       0.00000000       0.00000000  -26840.82812500
K        0.00000000       0.00000000       0.47393939       0.00000000       0.00000000   26840.82812500
2
Properties=species:S:1:pos:R:3:forces:R:3 energy=14963.79875789512 pbc="F F F"
K        0.00000000       0.00000000       0.00000000       0.00000000       0.00000000  -35873.14453125
K        0.00000000       0.00000000       0.53272727       0.00000000       0.00000000   35873.14453125
2
Properties=species:S:1:pos:R:3:forces:R:3 energy=12608.558523520516 pbc="F F F"
K        0.00000000       0.00000000       0.00000000       0.00000000       0.00000000  -43884.18750000
K        0.00000000       0.00000000       0.59151515       0.00000000       0.00000000   43884.18750000
2
Properties=species:S:1:pos:R:3:forces:R:3 energy=9873.5917266471 pbc="F F F"
K        0.00000000       0.00000000       0.00000000       0.00000000       0.00000000  -48356.85546875
K        0.00000000       0.00000000       0.65030303       0.00000000       0.00000000   48356.85546875
2
Properties=species:S:1:pos:R:3:forces:R:3 energy=7035.544363367038 pbc="F F F"
K        0.00000000       0.00000000       0.00000000       0.00000000       0.00000000  -47139.08593750
K        0.00000000       0.00000000       0.70909091       0.00000000       0.00000000   47139.08593750
2
Properties=species:S:1:pos:R:3:forces:R:3 energy=4454.553152431914 pbc="F F F"
K        0.00000000       0.00000000       0.00000000       0.00000000       0.00000000  -39722.07421875
K        0.00000000       0.00000000       0.76787879       0.00000000       0.00000000   39722.07421875
2
Properties=species:S:1:pos:R:3:forces:R:3 energy=2448.6227325132068 pbc="F F F"
K        0.00000000       0.00000000       0.00000000       0.00000000       0.00000000  -28115.33398438
K        0.00000000       0.00000000       0.82666667       0.00000000       0.00000000   28115.33398438
2
Properties=species:S:1:pos:R:3:forces:R:3 energy=1154.9513457996045 pbc="F F F"
K        0.00000000       0.00000000       0.00000000       0.00000000       0.00000000  -16183.23046875
K        0.00000000       0.00000000       0.88545455       0.00000000       0.00000000   16183.23046875
2
Properties=species:S:1:pos:R:3:forces:R:3 energy=483.14674985907044 pbc="F F F"
K        0.00000000       0.00000000       0.00000000       0.00000000       0.00000000   -7359.18652344
K        0.00000000       0.00000000       0.94424242       0.00000000       0.00000000    7359.18652344
2
Properties=species:S:1:pos:R:3:forces:R:3 energy=209.1911224267717 pbc="F F F"
K        0.00000000       0.00000000       0.00000000       0.00000000       0.00000000   -2556.00463867
K        0.00000000       0.00000000       1.00303030       0.00000000       0.00000000    2556.00463867
2
Properties=species:S:1:pos:R:3:forces:R:3 energy=132.92803039842735 pbc="F F F"
K        0.00000000       0.00000000       0.00000000       0.00000000       0.00000000    -302.26654053
K        0.00000000       0.00000000       1.06181818       0.00000000       0.00000000     302.26654053
2
Properties=species:S:1:pos:R:3:forces:R:3 energy=108.15652315187484 pbc="F F F"
K        0.00000000       0.00000000       0.00000000       0.00000000       0.00000000    -422.31439209
K        0.00000000       0.00000000       1.12060606       0.00000000       0.00000000     422.31439209
2
Properties=species:S:1:pos:R:3:forces:R:3 energy=85.12028354963017 pbc="F F F"
K        0.00000000       0.00000000       0.00000000       0.00000000       0.00000000    -357.71514893
K        0.00000000       0.00000000       1.17939394       0.00000000       0.00000000     357.71514893
2
Properties=species:S:1:pos:R:3:forces:R:3 energy=65.46933600615185 pbc="F F F"
K        0.00000000       0.00000000       0.00000000       0.00000000       0.00000000    -315.70129395
K        0.00000000       0.00000000       1.23818182       0.00000000       0.00000000     315.70129395
2
Properties=species:S:1:pos:R:3:forces:R:3 energy=48.351282605510555 pbc="F F F"
K        0.00000000       0.00000000       0.00000000       0.00000000       0.00000000    -261.65328979
K        0.00000000       0.00000000       1.29696970       0.00000000       0.00000000     261.65328979
2
Properties=species:S:1:pos:R:3:forces:R:3 energy=34.793554836139364 pbc="F F F"
K        0.00000000       0.00000000       0.00000000       0.00000000       0.00000000    -202.24844360
K        0.00000000       0.00000000       1.35575758       0.00000000       0.00000000     202.24844360
2
Properties=species:S:1:pos:R:3:forces:R:3 energy=24.22085057718266 pbc="F F F"
K        0.00000000       0.00000000       0.00000000       0.00000000       0.00000000    -159.67761230
K        0.00000000       0.00000000       1.41454545       0.00000000       0.00000000     159.67761230
2
Properties=species:S:1:pos:R:3:forces:R:3 energy=15.84157627740068 pbc="F F F"
K        0.00000000       0.00000000       0.00000000       0.00000000       0.00000000    -126.53497314
K        0.00000000       0.00000000       1.47333333       0.00000000       0.00000000     126.53497314
2
Properties=species:S:1:pos:R:3:forces:R:3 energy=9.220433020679492 pbc="F F F"
K        0.00000000       0.00000000       0.00000000       0.00000000       0.00000000     -99.67382812
K        0.00000000       0.00000000       1.53212121       0.00000000       0.00000000      99.67382812
2
Properties=species:S:1:pos:R:3:forces:R:3 energy=4.0274151640389855 pbc="F F F"
K        0.00000000       0.00000000       0.00000000       0.00000000       0.00000000     -77.64724731
K        0.00000000       0.00000000       1.59090909       0.00000000       0.00000000      77.64724731
2
Properties=species:S:1:pos:R:3:forces:R:3 energy=0.02888871519485226 pbc="F F F"
K        0.00000000       0.00000000       0.00000000       0.00000000       0.00000000     -58.82635117
K        0.00000000       0.00000000       1.64969697       0.00000000       0.00000000      58.82635117
2
Properties=species:S:1:pos:R:3:forces:R:3 energy=-2.9364798836286883 pbc="F F F"
K        0.00000000       0.00000000       0.00000000       0.00000000       0.00000000     -42.45841980
K        0.00000000       0.00000000       1.70848485       0.00000000       0.00000000      42.45841980
2
Properties=species:S:1:pos:R:3:forces:R:3 energy=-5.020267146692355 pbc="F F F"
K        0.00000000       0.00000000       0.00000000       0.00000000       0.00000000     -29.05180931
K        0.00000000       0.00000000       1.76727273       0.00000000       0.00000000      29.05180931
2
Properties=species:S:1:pos:R:3:forces:R:3 energy=-6.4362930506577065 pbc="F F F"
K        0.00000000       0.00000000       0.00000000       0.00000000       0.00000000     -19.82852364
K        0.00000000       0.00000000       1.82606061       0.00000000       0.00000000      19.82852364
2
Properties=species:S:1:pos:R:3:forces:R:3 energy=-7.414955292036439 pbc="F F F"
K        0.00000000       0.00000000       0.00000000       0.00000000       0.00000000     -13.79769421
K        0.00000000       0.00000000       1.88484848       0.00000000       0.00000000      13.79769421
2
Properties=species:S:1:pos:R:3:forces:R:3 energy=-8.080763675894275 pbc="F F F"
K        0.00000000       0.00000000       0.00000000       0.00000000       0.00000000      -8.98478508
K        0.00000000       0.00000000       1.94363636       0.00000000       0.00000000       8.98478508
2
Properties=species:S:1:pos:R:3:forces:R:3 energy=-8.49142598403954 pbc="F F F"
K        0.00000000       0.00000000       0.00000000       0.00000000       0.00000000      -5.21706390
K        0.00000000       0.00000000       2.00242424       0.00000000       0.00000000       5.21706390
2
Properties=species:S:1:pos:R:3:forces:R:3 energy=-8.72548014953168 pbc="F F F"
K        0.00000000       0.00000000       0.00000000       0.00000000       0.00000000      -3.01402116
K        0.00000000       0.00000000       2.06121212       0.00000000       0.00000000       3.01402116
2
Properties=species:S:1:pos:R:3:forces:R:3 energy=-8.87275084175677 pbc="F F F"
K        0.00000000       0.00000000       0.00000000       0.00000000       0.00000000      -2.17291260
K        0.00000000       0.00000000       2.12000000       0.00000000       0.00000000       2.17291260
2
Properties=species:S:1:pos:R:3:forces:R:3 energy=-8.995419525969552 pbc="F F F"
K        0.00000000       0.00000000       0.00000000       0.00000000       0.00000000      -2.07626271
K        0.00000000       0.00000000       2.17878788       0.00000000       0.00000000       2.07626271
2
Properties=species:S:1:pos:R:3:forces:R:3 energy=-9.121810319071871 pbc="F F F"
K        0.00000000       0.00000000       0.00000000       0.00000000       0.00000000      -2.24017692
K        0.00000000       0.00000000       2.23757576       0.00000000       0.00000000       2.24017692
2
Properties=species:S:1:pos:R:3:forces:R:3 energy=-9.258980402689598 pbc="F F F"
K        0.00000000       0.00000000       0.00000000       0.00000000       0.00000000      -2.41787910
K        0.00000000       0.00000000       2.29636364       0.00000000       0.00000000       2.41787910
2
Properties=species:S:1:pos:R:3:forces:R:3 energy=-9.404582772054747 pbc="F F F"
K        0.00000000       0.00000000       0.00000000       0.00000000       0.00000000      -2.52073050
K        0.00000000       0.00000000       2.35515152       0.00000000       0.00000000       2.52073050
2
Properties=species:S:1:pos:R:3:forces:R:3 energy=-9.553616347964704 pbc="F F F"
K        0.00000000       0.00000000       0.00000000       0.00000000       0.00000000      -2.53559780
K        0.00000000       0.00000000       2.41393939       0.00000000       0.00000000       2.53559780
2
Properties=species:S:1:pos:R:3:forces:R:3 energy=-9.701225962991295 pbc="F F F"
K        0.00000000       0.00000000       0.00000000       0.00000000       0.00000000      -2.47505856
K        0.00000000       0.00000000       2.47272727       0.00000000       0.00000000       2.47505856
2
Properties=species:S:1:pos:R:3:forces:R:3 energy=-9.843508215486175 pbc="F F F"
K        0.00000000       0.00000000       0.00000000       0.00000000       0.00000000      -2.35767555
K        0.00000000       0.00000000       2.53151515       0.00000000       0.00000000       2.35767555
2
Properties=species:S:1:pos:R:3:forces:R:3 energy=-9.977716504807141 pbc="F F F"
K        0.00000000       0.00000000       0.00000000       0.00000000       0.00000000      -2.20381594
K        0.00000000       0.00000000       2.59030303       0.00000000       0.00000000       2.20381594
2
Properties=species:S:1:pos:R:3:forces:R:3 energy=-10.102310635449843 pbc="F F F"
K        0.00000000       0.00000000       0.00000000       0.00000000       0.00000000      -2.03381586
K        0.00000000       0.00000000       2.64909091       0.00000000       0.00000000       2.03381586
2
Properties=species:S:1:pos:R:3:forces:R:3 energy=-10.216857623831498 pbc="F F F"
K        0.00000000       0.00000000       0.00000000       0.00000000       0.00000000      -1.86421919
K        0.00000000       0.00000000       2.70787879       0.00000000       0.00000000       1.86421919
2
Properties=species:S:1:pos:R:3:forces:R:3 energy=-10.321692193402075 pbc="F F F"
K        0.00000000       0.00000000       0.00000000       0.00000000       0.00000000      -1.70423782
K        0.00000000       0.00000000       2.76666667       0.00000000       0.00000000       1.70423782
2
Properties=species:S:1:pos:R:3:forces:R:3 energy=-10.417453292886304 pbc="F F F"
K        0.00000000       0.00000000       0.00000000       0.00000000       0.00000000      -1.55528271
K        0.00000000       0.00000000       2.82545455       0.00000000       0.00000000       1.55528271
2
Properties=species:S:1:pos:R:3:forces:R:3 energy=-10.50470166258736 pbc="F F F"
K        0.00000000       0.00000000       0.00000000       0.00000000       0.00000000      -1.41379166
K        0.00000000       0.00000000       2.88424242       0.00000000       0.00000000       1.41379166
2
Properties=species:S:1:pos:R:3:forces:R:3 energy=-10.58374056658211 pbc="F F F"
K        0.00000000       0.00000000       0.00000000       0.00000000       0.00000000      -1.27539992
K        0.00000000       0.00000000       2.94303030       0.00000000       0.00000000       1.27539992
2
Properties=species:S:1:pos:R:3:forces:R:3 energy=-10.654679673853137 pbc="F F F"
K        0.00000000       0.00000000       0.00000000       0.00000000       0.00000000      -1.13824081
K        0.00000000       0.00000000       3.00181818       0.00000000       0.00000000       1.13824081
2
Properties=species:S:1:pos:R:3:forces:R:3 energy=-10.71762769693687 pbc="F F F"
K        0.00000000       0.00000000       0.00000000       0.00000000       0.00000000      -1.00411260
K        0.00000000       0.00000000       3.06060606       0.00000000       0.00000000       1.00411260
2
Properties=species:S:1:pos:R:3:forces:R:3 energy=-10.772890783503849 pbc="F F F"
K        0.00000000       0.00000000       0.00000000       0.00000000       0.00000000      -0.87780041
K        0.00000000       0.00000000       3.11939394       0.00000000       0.00000000       0.87780041
2
Properties=species:S:1:pos:R:3:forces:R:3 energy=-10.821106013340014 pbc="F F F"
K        0.00000000       0.00000000       0.00000000       0.00000000       0.00000000      -0.76531142
K        0.00000000       0.00000000       3.17818182       0.00000000       0.00000000       0.76531142
2
Properties=species:S:1:pos:R:3:forces:R:3 energy=-10.863246180973475 pbc="F F F"
K        0.00000000       0.00000000       0.00000000       0.00000000       0.00000000      -0.67180222
K        0.00000000       0.00000000       3.23696970       0.00000000       0.00000000       0.67180222
2
Properties=species:S:1:pos:R:3:forces:R:3 energy=-10.900517771529595 pbc="F F F"
K        0.00000000       0.00000000       0.00000000       0.00000000       0.00000000      -0.59976470
K        0.00000000       0.00000000       3.29575758       0.00000000       0.00000000       0.59976470
2
Properties=species:S:1:pos:R:3:forces:R:3 energy=-10.934165436905282 pbc="F F F"
K        0.00000000       0.00000000       0.00000000       0.00000000       0.00000000      -0.54808468
K        0.00000000       0.00000000       3.35454545       0.00000000       0.00000000       0.54808468
2
Properties=species:S:1:pos:R:3:forces:R:3 energy=-10.96527177405574 pbc="F F F"
K        0.00000000       0.00000000       0.00000000       0.00000000       0.00000000      -0.51233816
K        0.00000000       0.00000000       3.41333333       0.00000000       0.00000000       0.51233816
2
Properties=species:S:1:pos:R:3:forces:R:3 energy=-10.99459233141818 pbc="F F F"
K        0.00000000       0.00000000       0.00000000       0.00000000       0.00000000      -0.48618895
K        0.00000000       0.00000000       3.47212121       0.00000000       0.00000000       0.48618895
2
Properties=species:S:1:pos:R:3:forces:R:3 energy=-11.022497467248696 pbc="F F F"
K        0.00000000       0.00000000       0.00000000       0.00000000       0.00000000      -0.46324277
K        0.00000000       0.00000000       3.53090909       0.00000000       0.00000000       0.46324277
2
Properties=species:S:1:pos:R:3:forces:R:3 energy=-11.049022926831205 pbc="F F F"
K        0.00000000       0.00000000       0.00000000       0.00000000       0.00000000      -0.43852243
K        0.00000000       0.00000000       3.58969697       0.00000000       0.00000000       0.43852243
2
Properties=species:S:1:pos:R:3:forces:R:3 energy=-11.073964296624506 pbc="F F F"
K        0.00000000       0.00000000       0.00000000       0.00000000       0.00000000      -0.40906754
K        0.00000000       0.00000000       3.64848485       0.00000000       0.00000000       0.40906754
2
Properties=species:S:1:pos:R:3:forces:R:3 energy=-11.097002012417425 pbc="F F F"
K        0.00000000       0.00000000       0.00000000       0.00000000       0.00000000      -0.37368974
K        0.00000000       0.00000000       3.70727273       0.00000000       0.00000000       0.37368974
2
Properties=species:S:1:pos:R:3:forces:R:3 energy=-11.117783445012105 pbc="F F F"
K        0.00000000       0.00000000       0.00000000       0.00000000       0.00000000      -0.33235562
K        0.00000000       0.00000000       3.76606061       0.00000000       0.00000000       0.33235562
2
Properties=species:S:1:pos:R:3:forces:R:3 energy=-11.13597361523321 pbc="F F F"
K        0.00000000       0.00000000       0.00000000       0.00000000       0.00000000      -0.28566703
K        0.00000000       0.00000000       3.82484848       0.00000000       0.00000000       0.28566703
2
Properties=species:S:1:pos:R:3:forces:R:3 energy=-11.151285915434618 pbc="F F F"
K        0.00000000       0.00000000       0.00000000       0.00000000       0.00000000      -0.23463160
K        0.00000000       0.00000000       3.88363636       0.00000000       0.00000000       0.23463160
2
Properties=species:S:1:pos:R:3:forces:R:3 energy=-11.16350249343602 pbc="F F F"
K        0.00000000       0.00000000       0.00000000       0.00000000       0.00000000      -0.18061677
K        0.00000000       0.00000000       3.94242424       0.00000000       0.00000000       0.18061677
2
Properties=species:S:1:pos:R:3:forces:R:3 energy=-11.172495795250338 pbc="F F F"
K        0.00000000       0.00000000       0.00000000       0.00000000       0.00000000      -0.12525274
K        0.00000000       0.00000000       4.00121212       0.00000000       0.00000000       0.12525274
2
Properties=species:S:1:pos:R:3:forces:R:3 energy=-11.17823518877101 pbc="F F F"
K        0.00000000       0.00000000       0.00000000       0.00000000       0.00000000      -0.07020261
K        0.00000000       0.00000000       4.06000000       0.00000000       0.00000000       0.07020261
2
Properties=species:S:1:pos:R:3:forces:R:3 energy=-11.180783719518827 pbc="F F F"
K        0.00000000       0.00000000       0.00000000       0.00000000       0.00000000      -0.01689067
K        0.00000000       0.00000000       4.11878788       0.00000000       0.00000000       0.01689067
2
Properties=species:S:1:pos:R:3:forces:R:3 energy=-11.180274813725717 pbc="F F F"
K        0.00000000       0.00000000       0.00000000       0.00000000       0.00000000       0.03366694
K        0.00000000       0.00000000       4.17757576       0.00000000       0.00000000      -0.03366694
2
Properties=species:S:1:pos:R:3:forces:R:3 energy=-11.176890706297684 pbc="F F F"
K        0.00000000       0.00000000       0.00000000       0.00000000       0.00000000       0.08087640
K        0.00000000       0.00000000       4.23636364       0.00000000       0.00000000      -0.08087640
2
Properties=species:S:1:pos:R:3:forces:R:3 energy=-11.170836746322175 pbc="F F F"
K        0.00000000       0.00000000       0.00000000       0.00000000       0.00000000       0.12444934
K        0.00000000       0.00000000       4.29515152       0.00000000       0.00000000      -0.12444934
2
Properties=species:S:1:pos:R:3:forces:R:3 energy=-11.162333807888848 pbc="F F F"
K        0.00000000       0.00000000       0.00000000       0.00000000       0.00000000       0.16420914
K        0.00000000       0.00000000       4.35393939       0.00000000       0.00000000      -0.16420914
2
Properties=species:S:1:pos:R:3:forces:R:3 energy=-11.151610059419058 pbc="F F F"
K        0.00000000       0.00000000       0.00000000       0.00000000       0.00000000       0.19990407
K        0.00000000       0.00000000       4.41272727       0.00000000       0.00000000      -0.19990407
2
Properties=species:S:1:pos:R:3:forces:R:3 energy=-11.138917568125336 pbc="F F F"
K        0.00000000       0.00000000       0.00000000       0.00000000       0.00000000       0.23112042
K        0.00000000       0.00000000       4.47151515       0.00000000       0.00000000      -0.23112042
2
Properties=species:S:1:pos:R:3:forces:R:3 energy=-11.124528537743055 pbc="F F F"
K        0.00000000       0.00000000       0.00000000       0.00000000       0.00000000       0.25760263
K        0.00000000       0.00000000       4.53030303       0.00000000       0.00000000      -0.25760263
2
Properties=species:S:1:pos:R:3:forces:R:3 energy=-11.10870722059226 pbc="F F F"
K        0.00000000       0.00000000       0.00000000       0.00000000       0.00000000       0.28021219
K        0.00000000       0.00000000       4.58909091       0.00000000       0.00000000      -0.28021219
2
Properties=species:S:1:pos:R:3:forces:R:3 energy=-11.09160108026176 pbc="F F F"
K        0.00000000       0.00000000       0.00000000       0.00000000       0.00000000       0.30202445
K        0.00000000       0.00000000       4.64787879       0.00000000       0.00000000      -0.30202445
2
Properties=species:S:1:pos:R:3:forces:R:3 energy=-11.073118388596304 pbc="F F F"
K        0.00000000       0.00000000       0.00000000       0.00000000       0.00000000       0.32776862
K        0.00000000       0.00000000       4.70666667       0.00000000       0.00000000      -0.32776862
2
Properties=species:S:1:pos:R:3:forces:R:3 energy=-11.052916534892704 pbc="F F F"
K        0.00000000       0.00000000       0.00000000       0.00000000       0.00000000       0.36078191
K        0.00000000       0.00000000       4.76545455       0.00000000       0.00000000      -0.36078191
2
Properties=species:S:1:pos:R:3:forces:R:3 energy=-11.030568480538657 pbc="F F F"
K        0.00000000       0.00000000       0.00000000       0.00000000       0.00000000       0.40029627
K        0.00000000       0.00000000       4.82424242       0.00000000       0.00000000      -0.40029627
2
Properties=species:S:1:pos:R:3:forces:R:3 energy=-11.005803593301772 pbc="F F F"
K        0.00000000       0.00000000       0.00000000       0.00000000       0.00000000       0.44240293
K        0.00000000       0.00000000       4.88303030       0.00000000       0.00000000      -0.44240293
2
Properties=species:S:1:pos:R:3:forces:R:3 energy=-10.978573867367052 pbc="F F F"
K        0.00000000       0.00000000       0.00000000       0.00000000       0.00000000       0.48355573
K        0.00000000       0.00000000       4.94181818       0.00000000       0.00000000      -0.48355573
2
Properties=species:S:1:pos:R:3:forces:R:3 energy=-10.94898239193623 pbc="F F F"
K        0.00000000       0.00000000       0.00000000       0.00000000       0.00000000       0.52290821
K        0.00000000       0.00000000       5.00060606       0.00000000       0.00000000      -0.52290821
2
Properties=species:S:1:pos:R:3:forces:R:3 energy=-10.917093149184055 pbc="F F F"
K        0.00000000       0.00000000       0.00000000       0.00000000       0.00000000       0.56218016
K        0.00000000       0.00000000       5.05939394       0.00000000       0.00000000      -0.56218016
2
Properties=species:S:1:pos:R:3:forces:R:3 energy=-10.882840081443971 pbc="F F F"
K        0.00000000       0.00000000       0.00000000       0.00000000       0.00000000       0.60355622
K        0.00000000       0.00000000       5.11818182       0.00000000       0.00000000      -0.60355622
2
Properties=species:S:1:pos:R:3:forces:R:3 energy=-10.846098688610336 pbc="F F F"
K        0.00000000       0.00000000       0.00000000       0.00000000       0.00000000       0.64636481
K        0.00000000       0.00000000       5.17696970       0.00000000       0.00000000      -0.64636481
2
Properties=species:S:1:pos:R:3:forces:R:3 energy=-10.806955544196132 pbc="F F F"
K        0.00000000       0.00000000       0.00000000       0.00000000       0.00000000       0.68335390
K        0.00000000       0.00000000       5.23575758       0.00000000       0.00000000      -0.68335390
2
Properties=species:S:1:pos:R:3:forces:R:3 energy=-10.766164988600648 pbc="F F F"
K        0.00000000       0.00000000       0.00000000       0.00000000       0.00000000       0.69954926
K        0.00000000       0.00000000       5.29454545       0.00000000       0.00000000      -0.69954926
2
Properties=species:S:1:pos:R:3:forces:R:3 energy=-10.72535438386002 pbc="F F F"
K        0.00000000       0.00000000       0.00000000       0.00000000       0.00000000       0.68375474
K        0.00000000       0.00000000       5.35333333       0.00000000       0.00000000      -0.68375474
2
Properties=species:S:1:pos:R:3:forces:R:3 energy=-10.685975625468801 pbc="F F F"
K        0.00000000       0.00000000       0.00000000       0.00000000       0.00000000       0.65892327
K        0.00000000       0.00000000       5.41212121       0.00000000       0.00000000      -0.65892327
2
Properties=species:S:1:pos:R:3:forces:R:3 energy=-10.646981388899901 pbc="F F F"
K        0.00000000       0.00000000       0.00000000       0.00000000       0.00000000       0.67690414
K        0.00000000       0.00000000       5.47090909       0.00000000       0.00000000      -0.67690414
2
Properties=species:S:1:pos:R:3:forces:R:3 energy=-10.605955195016248 pbc="F F F"
K        0.00000000       0.00000000       0.00000000       0.00000000       0.00000000       0.71362197
K        0.00000000       0.00000000       5.52969697       0.00000000       0.00000000      -0.71362197
2
Properties=species:S:1:pos:R:3:forces:R:3 energy=-10.564487439607412 pbc="F F F"
K        0.00000000       0.00000000       0.00000000       0.00000000       0.00000000       0.68337119
K        0.00000000       0.00000000       5.58848485       0.00000000       0.00000000      -0.68337119
2
Properties=species:S:1:pos:R:3:forces:R:3 energy=-10.526569570247812 pbc="F F F"
K        0.00000000       0.00000000       0.00000000       0.00000000       0.00000000       0.60758632
K        0.00000000       0.00000000       5.64727273       0.00000000       0.00000000      -0.60758632
2
Properties=species:S:1:pos:R:3:forces:R:3 energy=-10.491746235547549 pbc="F F F"
K        0.00000000       0.00000000       0.00000000       0.00000000       0.00000000       0.59625828
K        0.00000000       0.00000000       5.70606061       0.00000000       0.00000000      -0.59625828
2
Properties=species:S:1:pos:R:3:forces:R:3 energy=-10.4546204642387 pbc="F F F"
K        0.00000000       0.00000000       0.00000000       0.00000000       0.00000000       0.66611660
K        0.00000000       0.00000000       5.76484848       0.00000000       0.00000000      -0.66611660
2
Properties=species:S:1:pos:R:3:forces:R:3 energy=-10.415636673609551 pbc="F F F"
K        0.00000000       0.00000000       0.00000000       0.00000000       0.00000000       0.62736791
K        0.00000000       0.00000000       5.82363636       0.00000000       0.00000000      -0.62736791
2
Properties=species:S:1:pos:R:3:forces:R:3 energy=-10.385100824900789 pbc="F F F"
K        0.00000000       0.00000000       0.00000000       0.00000000       0.00000000       0.38982099
K        0.00000000       0.00000000       5.88242424       0.00000000       0.00000000      -0.38982099
2
Properties=species:S:1:pos:R:3:forces:R:3 energy=-10.370327225357139 pbc="F F F"
K        0.00000000       0.00000000       0.00000000       0.00000000       0.00000000       0.12423524
K        0.00000000       0.00000000       5.94121212       0.00000000       0.00000000      -0.12423524
2
Properties=species:S:1:pos:R:3:forces:R:3 energy=-10.367281752625395 pbc="F F F"
K        0.00000000       0.00000000       0.00000000       0.00000000       0.00000000       0.01555700
K        0.00000000       0.00000000       6.00000000       0.00000000       0.00000000      -0.01555700
