2
Properties=species:S:1:pos:R:3:forces:R:3 energy=-28793562.021632496 pbc="F F F"
La       0.00000000       0.00000000       0.00000000       0.00000000       0.00000000 -1035164.00000000
La       0.00000000       0.00000000       0.10000000       0.00000000       0.00000000 1035164.00000000
2
Properties=species:S:1:pos:R:3:forces:R:3 energy=-28792000.021632496 pbc="F F F"
La       0.00000000       0.00000000       0.00000000       0.00000000       0.00000000  980929.62500000
La       0.00000000       0.00000000       0.15959596       0.00000000       0.00000000 -980929.62500000
2
Properties=species:S:1:pos:R:3:forces:R:3 energy=-28659160.021632496 pbc="F F F"
La       0.00000000       0.00000000       0.00000000       0.00000000       0.00000000 3798720.25000000
La       0.00000000       0.00000000       0.21919192       0.00000000       0.00000000 -3798720.25000000
2
Properties=species:S:1:pos:R:3:forces:R:3 energy=-28291284.021632496 pbc="F F F"
La       0.00000000       0.00000000       0.00000000       0.00000000       0.00000000 9038804.00000000
La       0.00000000       0.00000000       0.27878788       0.00000000       0.00000000 -9038804.00000000
2
Properties=species:S:1:pos:R:3:forces:R:3 energy=-27513808.021632496 pbc="F F F"
La       0.00000000       0.00000000       0.00000000       0.00000000       0.00000000 17662644.00000000
La       0.00000000       0.00000000       0.33838384       0.00000000       0.00000000 -17662644.00000000
2
Properties=species:S:1:pos:R:3:forces:R:3 energy=-26109862.021632496 pbc="F F F"
La       0.00000000       0.00000000       0.00000000       0.00000000       0.00000000 30073460.00000000
La       0.00000000       0.00000000       0.39797980       0.00000000       0.00000000 -30073460.00000000
2
Properties=species:S:1:pos:R:3:forces:R:3 energy=-23866686.021632493 pbc="F F F"
La       0.00000000       0.00000000       0.00000000       0.00000000       0.00000000 45584340.00000000
La       0.00000000       0.00000000       0.45757576       0.00000000       0.00000000 -45584340.00000000
2
Properties=species:S:1:pos:R:3:forces:R:3 energy=-20661418.021632493 pbc="F F F"
La       0.00000000       0.00000000       0.00000000       0.00000000       0.00000000 61800672.00000000
La       0.00000000       0.00000000       0.51717172       0.00000000       0.00000000 -61800672.00000000
2
Properties=species:S:1:pos:R:3:forces:R:3 energy=-16570914.021632494 pbc="F F F"
La       0.00000000       0.00000000       0.00000000       0.00000000       0.00000000 74435680.00000000
La       0.00000000       0.00000000       0.57676768       0.00000000       0.00000000 -74435680.00000000
2
Properties=species:S:1:pos:R:3:forces:R:3 energy=-11964292.02163249 pbc="F F F"
La       0.00000000       0.00000000       0.00000000       0.00000000       0.00000000 78306872.00000000
La       0.00000000       0.00000000       0.63636364       0.00000000       0.00000000 -78306872.00000000
2
Properties=species:S:1:pos:R:3:forces:R:3 energy=-7484155.021632487 pbc="F F F"
La       0.00000000       0.00000000       0.00000000       0.00000000       0.00000000 69924328.00000000
La       0.00000000       0.00000000       0.69595960       0.00000000       0.00000000 -69924328.00000000
2
Properties=species:S:1:pos:R:3:forces:R:3 energy=-3849101.771632481 pbc="F F F"
La       0.00000000       0.00000000       0.00000000       0.00000000       0.00000000 50723692.00000000
La       0.00000000       0.00000000       0.75555556       0.00000000       0.00000000 -50723692.00000000
2
Properties=species:S:1:pos:R:3:forces:R:3 energy=-1510895.2716324746 pbc="F F F"
La       0.00000000       0.00000000       0.00000000       0.00000000       0.00000000 27948778.00000000
La       0.00000000       0.00000000       0.81515152       0.00000000       0.00000000 -27948778.00000000
2
Properties=species:S:1:pos:R:3:forces:R:3 energy=-407182.1778824635 pbc="F F F"
La       0.00000000       0.00000000       0.00000000       0.00000000       0.00000000 10545309.00000000
La       0.00000000       0.00000000       0.87474747       0.00000000       0.00000000 -10545309.00000000
2
Properties=species:S:1:pos:R:3:forces:R:3 energy=-67297.19350744606 pbc="F F F"
La       0.00000000       0.00000000       0.00000000       0.00000000       0.00000000 2315933.00000000
La       0.00000000       0.00000000       0.93434343       0.00000000       0.00000000 -2315933.00000000
2
Properties=species:S:1:pos:R:3:forces:R:3 energy=-7171.786280864551 pbc="F F F"
La       0.00000000       0.00000000       0.00000000       0.00000000       0.00000000  278741.06250000
La       0.00000000       0.00000000       0.99393939       0.00000000       0.00000000 -278741.06250000
2
Properties=species:S:1:pos:R:3:forces:R:3 energy=-836.2093765359986 pbc="F F F"
La       0.00000000       0.00000000       0.00000000       0.00000000       0.00000000   20843.05664062
La       0.00000000       0.00000000       1.05353535       0.00000000       0.00000000  -20843.05664062
2
Properties=species:S:1:pos:R:3:forces:R:3 energy=-447.4757644390217 pbc="F F F"
La       0.00000000       0.00000000       0.00000000       0.00000000       0.00000000    1455.06787109
La       0.00000000       0.00000000       1.11313131       0.00000000       0.00000000   -1455.06787109
2
Properties=species:S:1:pos:R:3:forces:R:3 energy=-353.78744041372715 pbc="F F F"
La       0.00000000       0.00000000       0.00000000       0.00000000       0.00000000    1481.02539062
La       0.00000000       0.00000000       1.17272727       0.00000000       0.00000000   -1481.02539062
2
Properties=species:S:1:pos:R:3:forces:R:3 energy=-274.6242933761306 pbc="F F F"
La       0.00000000       0.00000000       0.00000000       0.00000000       0.00000000    1210.46533203
La       0.00000000       0.00000000       1.23232323       0.00000000       0.00000000   -1210.46533203
2
Properties=species:S:1:pos:R:3:forces:R:3 energy=-206.47498604279065 pbc="F F F"
La       0.00000000       0.00000000       0.00000000       0.00000000       0.00000000    1073.77648926
La       0.00000000       0.00000000       1.29191919       0.00000000       0.00000000   -1073.77648926
2
Properties=species:S:1:pos:R:3:forces:R:3 energy=-148.45049558022328 pbc="F F F"
La       0.00000000       0.00000000       0.00000000       0.00000000       0.00000000     857.88916016
La       0.00000000       0.00000000       1.35151515       0.00000000       0.00000000    -857.88916016
2
Properties=species:S:1:pos:R:3:forces:R:3 energy=-105.21696730996771 pbc="F F F"
La       0.00000000       0.00000000       0.00000000       0.00000000       0.00000000     593.08996582
La       0.00000000       0.00000000       1.41111111       0.00000000       0.00000000    -593.08996582
2
Properties=species:S:1:pos:R:3:forces:R:3 energy=-76.92420439047723 pbc="F F F"
La       0.00000000       0.00000000       0.00000000       0.00000000       0.00000000     367.93792725
La       0.00000000       0.00000000       1.47070707       0.00000000       0.00000000    -367.93792725
2
Properties=species:S:1:pos:R:3:forces:R:3 energy=-59.870401699086145 pbc="F F F"
La       0.00000000       0.00000000       0.00000000       0.00000000       0.00000000     216.34672546
La       0.00000000       0.00000000       1.53030303       0.00000000       0.00000000    -216.34672546
2
Properties=species:S:1:pos:R:3:forces:R:3 energy=-49.86897856991594 pbc="F F F"
La       0.00000000       0.00000000       0.00000000       0.00000000       0.00000000     124.04938507
La       0.00000000       0.00000000       1.58989899       0.00000000       0.00000000    -124.04938507
2
Properties=species:S:1:pos:R:3:forces:R:3 energy=-45.50385070708018 pbc="F F F"
La       0.00000000       0.00000000       0.00000000       0.00000000       0.00000000      45.67839813
La       0.00000000       0.00000000       1.64949495       0.00000000       0.00000000     -45.67839813
2
Properties=species:S:1:pos:R:3:forces:R:3 energy=-43.246171363520574 pbc="F F F"
La       0.00000000       0.00000000       0.00000000       0.00000000       0.00000000      21.35381317
La       0.00000000       0.00000000       1.70909091       0.00000000       0.00000000     -21.35381317
2
Properties=species:S:1:pos:R:3:forces:R:3 energy=-43.18501752399935 pbc="F F F"
La       0.00000000       0.00000000       0.00000000       0.00000000       0.00000000     -16.78860283
La       0.00000000       0.00000000       1.76868687       0.00000000       0.00000000      16.78860283
2
Properties=species:S:1:pos:R:3:forces:R:3 energy=-44.828689953927395 pbc="F F F"
La       0.00000000       0.00000000       0.00000000       0.00000000       0.00000000     -34.87465668
La       0.00000000       0.00000000       1.82828283       0.00000000       0.00000000      34.87465668
2
Properties=species:S:1:pos:R:3:forces:R:3 energy=-47.01296211657056 pbc="F F F"
La       0.00000000       0.00000000       0.00000000       0.00000000       0.00000000     -36.49584198
La       0.00000000       0.00000000       1.88787879       0.00000000       0.00000000      36.49584198
2
Properties=species:S:1:pos:R:3:forces:R:3 energy=-49.03374005981644 pbc="F F F"
La       0.00000000       0.00000000       0.00000000       0.00000000       0.00000000     -30.71080208
La       0.00000000       0.00000000       1.94747475       0.00000000       0.00000000      30.71080208
2
Properties=species:S:1:pos:R:3:forces:R:3 energy=-50.64822591943124 pbc="F F F"
La       0.00000000       0.00000000       0.00000000       0.00000000       0.00000000     -23.51340675
La       0.00000000       0.00000000       2.00707071       0.00000000       0.00000000      23.51340675
2
Properties=species:S:1:pos:R:3:forces:R:3 energy=-51.857480165415694 pbc="F F F"
La       0.00000000       0.00000000       0.00000000       0.00000000       0.00000000     -17.35395432
La       0.00000000       0.00000000       2.06666667       0.00000000       0.00000000      17.35395432
2
Properties=species:S:1:pos:R:3:forces:R:3 energy=-52.757602640198066 pbc="F F F"
La       0.00000000       0.00000000       0.00000000       0.00000000       0.00000000     -13.19050503
La       0.00000000       0.00000000       2.12626263       0.00000000       0.00000000      13.19050503
2
Properties=species:S:1:pos:R:3:forces:R:3 energy=-53.458536695657045 pbc="F F F"
La       0.00000000       0.00000000       0.00000000       0.00000000       0.00000000     -10.45909405
La       0.00000000       0.00000000       2.18585859       0.00000000       0.00000000      10.45909405
2
Properties=species:S:1:pos:R:3:forces:R:3 energy=-54.00914860693313 pbc="F F F"
La       0.00000000       0.00000000       0.00000000       0.00000000       0.00000000      -8.01387787
La       0.00000000       0.00000000       2.24545455       0.00000000       0.00000000       8.01387787
2
Properties=species:S:1:pos:R:3:forces:R:3 energy=-54.41372987360409 pbc="F F F"
La       0.00000000       0.00000000       0.00000000       0.00000000       0.00000000      -5.59098101
La       0.00000000       0.00000000       2.30505051       0.00000000       0.00000000       5.59098101
2
Properties=species:S:1:pos:R:3:forces:R:3 energy=-54.68364066729479 pbc="F F F"
La       0.00000000       0.00000000       0.00000000       0.00000000       0.00000000      -3.57211947
La       0.00000000       0.00000000       2.36464646       0.00000000       0.00000000       3.57211947
2
Properties=species:S:1:pos:R:3:forces:R:3 energy=-54.85416692979269 pbc="F F F"
La       0.00000000       0.00000000       0.00000000       0.00000000       0.00000000      -2.27343488
La       0.00000000       0.00000000       2.42424242       0.00000000       0.00000000       2.27343488
2
Properties=species:S:1:pos:R:3:forces:R:3 energy=-54.96624038018099 pbc="F F F"
La       0.00000000       0.00000000       0.00000000       0.00000000       0.00000000      -1.55039442
La       0.00000000       0.00000000       2.48383838       0.00000000       0.00000000       1.55039442
2
Properties=species:S:1:pos:R:3:forces:R:3 energy=-55.042207573646415 pbc="F F F"
La       0.00000000       0.00000000       0.00000000       0.00000000       0.00000000      -0.99794960
La       0.00000000       0.00000000       2.54343434       0.00000000       0.00000000       0.99794960
2
Properties=species:S:1:pos:R:3:forces:R:3 energy=-55.083583040038086 pbc="F F F"
La       0.00000000       0.00000000       0.00000000       0.00000000       0.00000000      -0.37510875
La       0.00000000       0.00000000       2.60303030       0.00000000       0.00000000       0.37510875
2
Properties=species:S:1:pos:R:3:forces:R:3 energy=-55.0860792544505 pbc="F F F"
La       0.00000000       0.00000000       0.00000000       0.00000000       0.00000000       0.28687555
La       0.00000000       0.00000000       2.66262626       0.00000000       0.00000000      -0.28687555
2
Properties=species:S:1:pos:R:3:forces:R:3 energy=-55.051256746431434 pbc="F F F"
La       0.00000000       0.00000000       0.00000000       0.00000000       0.00000000       0.85763991
La       0.00000000       0.00000000       2.72222222       0.00000000       0.00000000      -0.85763991
2
Properties=species:S:1:pos:R:3:forces:R:3 energy=-54.98713455133081 pbc="F F F"
La       0.00000000       0.00000000       0.00000000       0.00000000       0.00000000       1.26656890
La       0.00000000       0.00000000       2.78181818       0.00000000       0.00000000      -1.26656890
2
Properties=species:S:1:pos:R:3:forces:R:3 energy=-54.90321588308022 pbc="F F F"
La       0.00000000       0.00000000       0.00000000       0.00000000       0.00000000       1.52932537
La       0.00000000       0.00000000       2.84141414       0.00000000       0.00000000      -1.52932537
2
Properties=species:S:1:pos:R:3:forces:R:3 energy=-54.806734657401115 pbc="F F F"
La       0.00000000       0.00000000       0.00000000       0.00000000       0.00000000       1.69650984
La       0.00000000       0.00000000       2.90101010       0.00000000       0.00000000      -1.69650984
2
Properties=species:S:1:pos:R:3:forces:R:3 energy=-54.70214444591632 pbc="F F F"
La       0.00000000       0.00000000       0.00000000       0.00000000       0.00000000       1.80531132
La       0.00000000       0.00000000       2.96060606       0.00000000       0.00000000      -1.80531132
2
Properties=species:S:1:pos:R:3:forces:R:3 energy=-54.59248820589411 pbc="F F F"
La       0.00000000       0.00000000       0.00000000       0.00000000       0.00000000       1.86672342
La       0.00000000       0.00000000       3.02020202       0.00000000       0.00000000      -1.86672342
2
Properties=species:S:1:pos:R:3:forces:R:3 energy=-54.480668865877334 pbc="F F F"
La       0.00000000       0.00000000       0.00000000       0.00000000       0.00000000       1.87697017
La       0.00000000       0.00000000       3.07979798       0.00000000       0.00000000      -1.87697017
2
Properties=species:S:1:pos:R:3:forces:R:3 energy=-54.369850245867156 pbc="F F F"
La       0.00000000       0.00000000       0.00000000       0.00000000       0.00000000       1.83303320
La       0.00000000       0.00000000       3.13939394       0.00000000       0.00000000      -1.83303320
2
Properties=species:S:1:pos:R:3:forces:R:3 energy=-54.263121883486455 pbc="F F F"
La       0.00000000       0.00000000       0.00000000       0.00000000       0.00000000       1.74213409
La       0.00000000       0.00000000       3.19898990       0.00000000       0.00000000      -1.74213409
2
Properties=species:S:1:pos:R:3:forces:R:3 energy=-54.16278249653883 pbc="F F F"
La       0.00000000       0.00000000       0.00000000       0.00000000       0.00000000       1.62235940
La       0.00000000       0.00000000       3.25858586       0.00000000       0.00000000      -1.62235940
2
Properties=species:S:1:pos:R:3:forces:R:3 energy=-54.06987541515983 pbc="F F F"
La       0.00000000       0.00000000       0.00000000       0.00000000       0.00000000       1.49618590
La       0.00000000       0.00000000       3.31818182       0.00000000       0.00000000      -1.49618590
2
Properties=species:S:1:pos:R:3:forces:R:3 energy=-53.98418579032621 pbc="F F F"
La       0.00000000       0.00000000       0.00000000       0.00000000       0.00000000       1.38307428
La       0.00000000       0.00000000       3.37777778       0.00000000       0.00000000      -1.38307428
2
Properties=species:S:1:pos:R:3:forces:R:3 energy=-53.90448195566158 pbc="F F F"
La       0.00000000       0.00000000       0.00000000       0.00000000       0.00000000       1.29729867
La       0.00000000       0.00000000       3.43737374       0.00000000       0.00000000      -1.29729867
2
Properties=species:S:1:pos:R:3:forces:R:3 energy=-53.82878353172056 pbc="F F F"
La       0.00000000       0.00000000       0.00000000       0.00000000       0.00000000       1.25029886
La       0.00000000       0.00000000       3.49696970       0.00000000       0.00000000      -1.25029886
2
Properties=species:S:1:pos:R:3:forces:R:3 energy=-53.75450614214651 pbc="F F F"
La       0.00000000       0.00000000       0.00000000       0.00000000       0.00000000       1.25074744
La       0.00000000       0.00000000       3.55656566       0.00000000       0.00000000      -1.25074744
2
Properties=species:S:1:pos:R:3:forces:R:3 energy=-53.678733062443584 pbc="F F F"
La       0.00000000       0.00000000       0.00000000       0.00000000       0.00000000       1.29973960
La       0.00000000       0.00000000       3.61616162       0.00000000       0.00000000      -1.29973960
2
Properties=species:S:1:pos:R:3:forces:R:3 energy=-53.598831048093544 pbc="F F F"
La       0.00000000       0.00000000       0.00000000       0.00000000       0.00000000       1.38640261
La       0.00000000       0.00000000       3.67575758       0.00000000       0.00000000      -1.38640261
2
Properties=species:S:1:pos:R:3:forces:R:3 energy=-53.513150355611494 pbc="F F F"
La       0.00000000       0.00000000       0.00000000       0.00000000       0.00000000       1.48992682
La       0.00000000       0.00000000       3.73535354       0.00000000       0.00000000      -1.48992682
2
Properties=species:S:1:pos:R:3:forces:R:3 energy=-53.421359850221656 pbc="F F F"
La       0.00000000       0.00000000       0.00000000       0.00000000       0.00000000       1.58791029
La       0.00000000       0.00000000       3.79494949       0.00000000       0.00000000      -1.58791029
2
Properties=species:S:1:pos:R:3:forces:R:3 energy=-53.32430623336231 pbc="F F F"
La       0.00000000       0.00000000       0.00000000       0.00000000       0.00000000       1.66499281
La       0.00000000       0.00000000       3.85454545       0.00000000       0.00000000      -1.66499281
2
Properties=species:S:1:pos:R:3:forces:R:3 energy=-53.22344364625378 pbc="F F F"
La       0.00000000       0.00000000       0.00000000       0.00000000       0.00000000       1.71531367
La       0.00000000       0.00000000       3.91414141       0.00000000       0.00000000      -1.71531367
2
Properties=species:S:1:pos:R:3:forces:R:3 energy=-53.12039527292489 pbc="F F F"
La       0.00000000       0.00000000       0.00000000       0.00000000       0.00000000       1.73834550
La       0.00000000       0.00000000       3.97373737       0.00000000       0.00000000      -1.73834550
2
Properties=species:S:1:pos:R:3:forces:R:3 energy=-53.01678952605417 pbc="F F F"
La       0.00000000       0.00000000       0.00000000       0.00000000       0.00000000       1.73399591
La       0.00000000       0.00000000       4.03333333       0.00000000       0.00000000      -1.73399591
2
Properties=species:S:1:pos:R:3:forces:R:3 energy=-52.914287320058655 pbc="F F F"
La       0.00000000       0.00000000       0.00000000       0.00000000       0.00000000       1.70102286
La       0.00000000       0.00000000       4.09292929       0.00000000       0.00000000      -1.70102286
2
Properties=species:S:1:pos:R:3:forces:R:3 energy=-52.814636697833514 pbc="F F F"
La       0.00000000       0.00000000       0.00000000       0.00000000       0.00000000       1.63805032
La       0.00000000       0.00000000       4.15252525       0.00000000       0.00000000      -1.63805032
2
Properties=species:S:1:pos:R:3:forces:R:3 energy=-52.71963848906067 pbc="F F F"
La       0.00000000       0.00000000       0.00000000       0.00000000       0.00000000       1.54522276
La       0.00000000       0.00000000       4.21212121       0.00000000       0.00000000      -1.54522276
2
Properties=species:S:1:pos:R:3:forces:R:3 energy=-52.63099316797853 pbc="F F F"
La       0.00000000       0.00000000       0.00000000       0.00000000       0.00000000       1.42564321
La       0.00000000       0.00000000       4.27171717       0.00000000       0.00000000      -1.42564321
2
Properties=species:S:1:pos:R:3:forces:R:3 energy=-52.55011513318109 pbc="F F F"
La       0.00000000       0.00000000       0.00000000       0.00000000       0.00000000       1.28599143
La       0.00000000       0.00000000       4.33131313       0.00000000       0.00000000      -1.28599143
2
Properties=species:S:1:pos:R:3:forces:R:3 energy=-52.47791828119392 pbc="F F F"
La       0.00000000       0.00000000       0.00000000       0.00000000       0.00000000       1.13616848
La       0.00000000       0.00000000       4.39090909       0.00000000       0.00000000      -1.13616848
2
Properties=species:S:1:pos:R:3:forces:R:3 energy=-52.41466005560603 pbc="F F F"
La       0.00000000       0.00000000       0.00000000       0.00000000       0.00000000       0.98802602
La       0.00000000       0.00000000       4.45050505       0.00000000       0.00000000      -0.98802602
2
Properties=species:S:1:pos:R:3:forces:R:3 energy=-52.35988481201856 pbc="F F F"
La       0.00000000       0.00000000       0.00000000       0.00000000       0.00000000       0.85330510
La       0.00000000       0.00000000       4.51010101       0.00000000       0.00000000      -0.85330510
2
Properties=species:S:1:pos:R:3:forces:R:3 energy=-52.3124983817198 pbc="F F F"
La       0.00000000       0.00000000       0.00000000       0.00000000       0.00000000       0.74132699
La       0.00000000       0.00000000       4.56969697       0.00000000       0.00000000      -0.74132699
2
Properties=species:S:1:pos:R:3:forces:R:3 energy=-52.27096729125502 pbc="F F F"
La       0.00000000       0.00000000       0.00000000       0.00000000       0.00000000       0.65714657
La       0.00000000       0.00000000       4.62929293       0.00000000       0.00000000      -0.65714657
2
Properties=species:S:1:pos:R:3:forces:R:3 energy=-52.23361668578401 pbc="F F F"
La       0.00000000       0.00000000       0.00000000       0.00000000       0.00000000       0.60069007
La       0.00000000       0.00000000       4.68888889       0.00000000       0.00000000      -0.60069007
2
Properties=species:S:1:pos:R:3:forces:R:3 energy=-52.19890512983615 pbc="F F F"
La       0.00000000       0.00000000       0.00000000       0.00000000       0.00000000       0.56747919
La       0.00000000       0.00000000       4.74848485       0.00000000       0.00000000      -0.56747919
2
Properties=species:S:1:pos:R:3:forces:R:3 energy=-52.16565353983158 pbc="F F F"
La       0.00000000       0.00000000       0.00000000       0.00000000       0.00000000       0.55070233
La       0.00000000       0.00000000       4.80808081       0.00000000       0.00000000      -0.55070233
2
Properties=species:S:1:pos:R:3:forces:R:3 energy=-52.133071899633315 pbc="F F F"
La       0.00000000       0.00000000       0.00000000       0.00000000       0.00000000       0.54389077
La       0.00000000       0.00000000       4.86767677       0.00000000       0.00000000      -0.54389077
2
Properties=species:S:1:pos:R:3:forces:R:3 energy=-52.100705911806294 pbc="F F F"
La       0.00000000       0.00000000       0.00000000       0.00000000       0.00000000       0.54298770
La       0.00000000       0.00000000       4.92727273       0.00000000       0.00000000      -0.54298770
2
Properties=species:S:1:pos:R:3:forces:R:3 energy=-52.068257646657315 pbc="F F F"
La       0.00000000       0.00000000       0.00000000       0.00000000       0.00000000       0.54681337
La       0.00000000       0.00000000       4.98686869       0.00000000       0.00000000      -0.54681337
2
Properties=species:S:1:pos:R:3:forces:R:3 energy=-52.03543302086868 pbc="F F F"
La       0.00000000       0.00000000       0.00000000       0.00000000       0.00000000       0.55580252
La       0.00000000       0.00000000       5.04646465       0.00000000       0.00000000      -0.55580252
2
Properties=species:S:1:pos:R:3:forces:R:3 energy=-52.001911235570525 pbc="F F F"
La       0.00000000       0.00000000       0.00000000       0.00000000       0.00000000       0.56983489
La       0.00000000       0.00000000       5.10606061       0.00000000       0.00000000      -0.56983489
2
Properties=species:S:1:pos:R:3:forces:R:3 energy=-51.96745925527267 pbc="F F F"
La       0.00000000       0.00000000       0.00000000       0.00000000       0.00000000       0.58607584
La       0.00000000       0.00000000       5.16565657       0.00000000       0.00000000      -0.58607584
2
Properties=species:S:1:pos:R:3:forces:R:3 energy=-51.932141603542966 pbc="F F F"
La       0.00000000       0.00000000       0.00000000       0.00000000       0.00000000       0.59769493
La       0.00000000       0.00000000       5.22525253       0.00000000       0.00000000      -0.59769493
2
Properties=species:S:1:pos:R:3:forces:R:3 energy=-51.89652255146578 pbc="F F F"
La       0.00000000       0.00000000       0.00000000       0.00000000       0.00000000       0.59438443
La       0.00000000       0.00000000       5.28484848       0.00000000       0.00000000      -0.59438443
2
Properties=species:S:1:pos:R:3:forces:R:3 energy=-51.86173476952155 pbc="F F F"
La       0.00000000       0.00000000       0.00000000       0.00000000       0.00000000       0.56979263
La       0.00000000       0.00000000       5.34444444       0.00000000       0.00000000      -0.56979263
2
Properties=species:S:1:pos:R:3:forces:R:3 energy=-51.82873166909745 pbc="F F F"
La       0.00000000       0.00000000       0.00000000       0.00000000       0.00000000       0.53983760
La       0.00000000       0.00000000       5.40404040       0.00000000       0.00000000      -0.53983760
2
Properties=species:S:1:pos:R:3:forces:R:3 energy=-51.796769156143476 pbc="F F F"
La       0.00000000       0.00000000       0.00000000       0.00000000       0.00000000       0.53875208
La       0.00000000       0.00000000       5.46363636       0.00000000       0.00000000      -0.53875208
2
Properties=species:S:1:pos:R:3:forces:R:3 energy=-51.76417238215506 pbc="F F F"
La       0.00000000       0.00000000       0.00000000       0.00000000       0.00000000       0.55316865
La       0.00000000       0.00000000       5.52323232       0.00000000       0.00000000      -0.55316865
2
Properties=species:S:1:pos:R:3:forces:R:3 energy=-51.73177278957717 pbc="F F F"
La       0.00000000       0.00000000       0.00000000       0.00000000       0.00000000       0.52395511
La       0.00000000       0.00000000       5.58282828       0.00000000       0.00000000      -0.52395511
2
Properties=species:S:1:pos:R:3:forces:R:3 energy=-51.70254190720249 pbc="F F F"
La       0.00000000       0.00000000       0.00000000       0.00000000       0.00000000       0.45645890
La       0.00000000       0.00000000       5.64242424       0.00000000       0.00000000      -0.45645890
2
Properties=species:S:1:pos:R:3:forces:R:3 energy=-51.67649872615396 pbc="F F F"
La       0.00000000       0.00000000       0.00000000       0.00000000       0.00000000       0.43084893
La       0.00000000       0.00000000       5.70202020       0.00000000       0.00000000      -0.43084893
2
Properties=species:S:1:pos:R:3:forces:R:3 energy=-51.649546245729205 pbc="F F F"
La       0.00000000       0.00000000       0.00000000       0.00000000       0.00000000       0.48158631
La       0.00000000       0.00000000       5.76161616       0.00000000       0.00000000      -0.48158631
2
Properties=species:S:1:pos:R:3:forces:R:3 energy=-51.62010520660283 pbc="F F F"
La       0.00000000       0.00000000       0.00000000       0.00000000       0.00000000       0.48143476
La       0.00000000       0.00000000       5.82121212       0.00000000       0.00000000      -0.48143476
2
Properties=species:S:1:pos:R:3:forces:R:3 energy=-51.595736414783026 pbc="F F F"
La       0.00000000       0.00000000       0.00000000       0.00000000       0.00000000       0.31477749
La       0.00000000       0.00000000       5.88080808       0.00000000       0.00000000      -0.31477749
2
Properties=species:S:1:pos:R:3:forces:R:3 energy=-51.58352008144333 pbc="F F F"
La       0.00000000       0.00000000       0.00000000       0.00000000       0.00000000       0.09886199
La       0.00000000       0.00000000       5.94040404       0.00000000       0.00000000      -0.09886199
2
Properties=species:S:1:pos:R:3:forces:R:3 energy=-51.58132018519126 pbc="F F F"
La       0.00000000       0.00000000       0.00000000       0.00000000       0.00000000       0.00635574
La       0.00000000       0.00000000       6.00000000       0.00000000       0.00000000      -0.00635574
