2
Properties=species:S:1:pos:R:3:forces:R:3 energy=-13647.719757548755 pbc="F F F"
Li       0.00000000       0.00000000       0.00000000       0.00000000       0.00000000   -6094.52880859
Li       0.00000000       0.00000000       0.10000000       0.00000000       0.00000000    6094.52880859
2
Properties=species:S:1:pos:R:3:forces:R:3 energy=-13777.387726298755 pbc="F F F"
Li       0.00000000       0.00000000       0.00000000       0.00000000       0.00000000    1010.41217041
Li       0.00000000       0.00000000       0.15959596       0.00000000       0.00000000   -1010.41217041
2
Properties=species:S:1:pos:R:3:forces:R:3 energy=-13515.240265361255 pbc="F F F"
Li       0.00000000       0.00000000       0.00000000       0.00000000       0.00000000    8331.00878906
Li       0.00000000       0.00000000       0.21919192       0.00000000       0.00000000   -8331.00878906
2
Properties=species:S:1:pos:R:3:forces:R:3 energy=-12697.217804423755 pbc="F F F"
Li       0.00000000       0.00000000       0.00000000       0.00000000       0.00000000   19928.83398438
Li       0.00000000       0.00000000       0.27878788       0.00000000       0.00000000  -19928.83398438
2
Properties=species:S:1:pos:R:3:forces:R:3 energy=-11059.852570048755 pbc="F F F"
Li       0.00000000       0.00000000       0.00000000       0.00000000       0.00000000   35392.33984375
Li       0.00000000       0.00000000       0.33838384       0.00000000       0.00000000  -35392.33984375
2
Properties=species:S:1:pos:R:3:forces:R:3 energy=-8503.017609110859 pbc="F F F"
Li       0.00000000       0.00000000       0.00000000       0.00000000       0.00000000   49466.28906250
Li       0.00000000       0.00000000       0.39797980       0.00000000       0.00000000  -49466.28906250
2
Properties=species:S:1:pos:R:3:forces:R:3 energy=-5376.164581766712 pbc="F F F"
Li       0.00000000       0.00000000       0.00000000       0.00000000       0.00000000   52947.68359375
Li       0.00000000       0.00000000       0.45757576       0.00000000       0.00000000  -52947.68359375
2
Properties=species:S:1:pos:R:3:forces:R:3 energy=-2534.5710759061494 pbc="F F F"
Li       0.00000000       0.00000000       0.00000000       0.00000000       0.00000000   39718.91406250
Li       0.00000000       0.00000000       0.51717172       0.00000000       0.00000000  -39718.91406250
2
Properties=species:S:1:pos:R:3:forces:R:3 energy=-778.2425846932322 pbc="F F F"
Li       0.00000000       0.00000000       0.00000000       0.00000000       0.00000000   19086.40625000
Li       0.00000000       0.00000000       0.57676768       0.00000000       0.00000000  -19086.40625000
2
Properties=species:S:1:pos:R:3:forces:R:3 energy=-126.36354874035736 pbc="F F F"
Li       0.00000000       0.00000000       0.00000000       0.00000000       0.00000000    4694.64355469
Li       0.00000000       0.00000000       0.63636364       0.00000000       0.00000000   -4694.64355469
2
Properties=species:S:1:pos:R:3:forces:R:3 energy=-23.50316856208418 pbc="F F F"
Li       0.00000000       0.00000000       0.00000000       0.00000000       0.00000000     156.10488892
Li       0.00000000       0.00000000       0.69595960       0.00000000       0.00000000    -156.10488892
2
Properties=species:S:1:pos:R:3:forces:R:3 energy=-14.310068578182708 pbc="F F F"
Li       0.00000000       0.00000000       0.00000000       0.00000000       0.00000000     124.55513763
Li       0.00000000       0.00000000       0.75555556       0.00000000       0.00000000    -124.55513763
2
Properties=species:S:1:pos:R:3:forces:R:3 energy=-7.087580163379041 pbc="F F F"
Li       0.00000000       0.00000000       0.00000000       0.00000000       0.00000000     119.92214966
Li       0.00000000       0.00000000       0.81515152       0.00000000       0.00000000    -119.92214966
2
Properties=species:S:1:pos:R:3:forces:R:3 energy=-0.960425318838099 pbc="F F F"
Li       0.00000000       0.00000000       0.00000000       0.00000000       0.00000000      72.25434113
Li       0.00000000       0.00000000       0.87474747       0.00000000       0.00000000     -72.25434113
2
Properties=species:S:1:pos:R:3:forces:R:3 energy=1.4641222587749616 pbc="F F F"
Li       0.00000000       0.00000000       0.00000000       0.00000000       0.00000000      19.10698128
Li       0.00000000       0.00000000       0.93434343       0.00000000       0.00000000     -19.10698128
2
Properties=species:S:1:pos:R:3:forces:R:3 energy=2.1382986281638274 pbc="F F F"
Li       0.00000000       0.00000000       0.00000000       0.00000000       0.00000000       6.43382788
Li       0.00000000       0.00000000       0.99393939       0.00000000       0.00000000      -6.43382788
2
Properties=species:S:1:pos:R:3:forces:R:3 energy=2.3203560543775406 pbc="F F F"
Li       0.00000000       0.00000000       0.00000000       0.00000000       0.00000000      -0.63072807
Li       0.00000000       0.00000000       1.05353535       0.00000000       0.00000000       0.63072807
2
Properties=species:S:1:pos:R:3:forces:R:3 energy=2.06557534640595 pbc="F F F"
Li       0.00000000       0.00000000       0.00000000       0.00000000       0.00000000      -7.17778635
Li       0.00000000       0.00000000       1.11313131       0.00000000       0.00000000       7.17778635
2
Properties=species:S:1:pos:R:3:forces:R:3 energy=1.5801169327647544 pbc="F F F"
Li       0.00000000       0.00000000       0.00000000       0.00000000       0.00000000      -8.37643433
Li       0.00000000       0.00000000       1.17272727       0.00000000       0.00000000       8.37643433
2
Properties=species:S:1:pos:R:3:forces:R:3 energy=1.1165183083309982 pbc="F F F"
Li       0.00000000       0.00000000       0.00000000       0.00000000       0.00000000      -6.97578382
Li       0.00000000       0.00000000       1.23232323       0.00000000       0.00000000       6.97578382
2
Properties=species:S:1:pos:R:3:forces:R:3 energy=0.7565862559722347 pbc="F F F"
Li       0.00000000       0.00000000       0.00000000       0.00000000       0.00000000      -5.16797876
Li       0.00000000       0.00000000       1.29191919       0.00000000       0.00000000       5.16797876
2
Properties=species:S:1:pos:R:3:forces:R:3 energy=0.4840370326779841 pbc="F F F"
Li       0.00000000       0.00000000       0.00000000       0.00000000       0.00000000      -4.13235712
Li       0.00000000       0.00000000       1.35151515       0.00000000       0.00000000       4.13235712
2
Properties=species:S:1:pos:R:3:forces:R:3 energy=0.25080545884103783 pbc="F F F"
Li       0.00000000       0.00000000       0.00000000       0.00000000       0.00000000      -3.75502801
Li       0.00000000       0.00000000       1.41111111       0.00000000       0.00000000       3.75502801
2
Properties=species:S:1:pos:R:3:forces:R:3 energy=0.03341804236344031 pbc="F F F"
Li       0.00000000       0.00000000       0.00000000       0.00000000       0.00000000      -3.54658508
Li       0.00000000       0.00000000       1.47070707       0.00000000       0.00000000       3.54658508
2
Properties=species:S:1:pos:R:3:forces:R:3 energy=-0.17210715594216236 pbc="F F F"
Li       0.00000000       0.00000000       0.00000000       0.00000000       0.00000000      -3.35163331
Li       0.00000000       0.00000000       1.53030303       0.00000000       0.00000000       3.35163331
2
Properties=species:S:1:pos:R:3:forces:R:3 energy=-0.3663176532552994 pbc="F F F"
Li       0.00000000       0.00000000       0.00000000       0.00000000       0.00000000      -3.16949058
Li       0.00000000       0.00000000       1.58989899       0.00000000       0.00000000       3.16949058
2
Properties=species:S:1:pos:R:3:forces:R:3 energy=-0.550522356091883 pbc="F F F"
Li       0.00000000       0.00000000       0.00000000       0.00000000       0.00000000      -3.01922679
Li       0.00000000       0.00000000       1.64949495       0.00000000       0.00000000       3.01922679
2
Properties=species:S:1:pos:R:3:forces:R:3 energy=-0.727118489800913 pbc="F F F"
Li       0.00000000       0.00000000       0.00000000       0.00000000       0.00000000      -2.91508675
Li       0.00000000       0.00000000       1.70909091       0.00000000       0.00000000       2.91508675
2
Properties=species:S:1:pos:R:3:forces:R:3 energy=-0.8987691784275982 pbc="F F F"
Li       0.00000000       0.00000000       0.00000000       0.00000000       0.00000000      -2.85036469
Li       0.00000000       0.00000000       1.76868687       0.00000000       0.00000000       2.85036469
2
Properties=species:S:1:pos:R:3:forces:R:3 energy=-1.0671817199938631 pbc="F F F"
Li       0.00000000       0.00000000       0.00000000       0.00000000       0.00000000      -2.80181193
Li       0.00000000       0.00000000       1.82828283       0.00000000       0.00000000       2.80181193
2
Properties=species:S:1:pos:R:3:forces:R:3 energy=-1.23250630790912 pbc="F F F"
Li       0.00000000       0.00000000       0.00000000       0.00000000       0.00000000      -2.74247956
Li       0.00000000       0.00000000       1.88787879       0.00000000       0.00000000       2.74247956
2
Properties=species:S:1:pos:R:3:forces:R:3 energy=-1.3934002196290027 pbc="F F F"
Li       0.00000000       0.00000000       0.00000000       0.00000000       0.00000000      -2.65020776
Li       0.00000000       0.00000000       1.94747475       0.00000000       0.00000000       2.65020776
2
Properties=species:S:1:pos:R:3:forces:R:3 energy=-1.5475007305984143 pbc="F F F"
Li       0.00000000       0.00000000       0.00000000       0.00000000       0.00000000      -2.51369762
Li       0.00000000       0.00000000       2.00707071       0.00000000       0.00000000       2.51369762
2
Properties=species:S:1:pos:R:3:forces:R:3 energy=-1.6921769127837913 pbc="F F F"
Li       0.00000000       0.00000000       0.00000000       0.00000000       0.00000000      -2.33544946
Li       0.00000000       0.00000000       2.06666667       0.00000000       0.00000000       2.33544946
2
Properties=species:S:1:pos:R:3:forces:R:3 energy=-1.825291758272155 pbc="F F F"
Li       0.00000000       0.00000000       0.00000000       0.00000000       0.00000000      -2.12831068
Li       0.00000000       0.00000000       2.12626263       0.00000000       0.00000000       2.12831068
2
Properties=species:S:1:pos:R:3:forces:R:3 energy=-1.945590342932868 pbc="F F F"
Li       0.00000000       0.00000000       0.00000000       0.00000000       0.00000000      -1.90777707
Li       0.00000000       0.00000000       2.18585859       0.00000000       0.00000000       1.90777707
2
Properties=species:S:1:pos:R:3:forces:R:3 energy=-2.052662194296001 pbc="F F F"
Li       0.00000000       0.00000000       0.00000000       0.00000000       0.00000000      -1.68599772
Li       0.00000000       0.00000000       2.24545455       0.00000000       0.00000000       1.68599772
2
Properties=species:S:1:pos:R:3:forces:R:3 energy=-2.146672998562908 pbc="F F F"
Li       0.00000000       0.00000000       0.00000000       0.00000000       0.00000000      -1.47042251
Li       0.00000000       0.00000000       2.30505051       0.00000000       0.00000000       1.47042251
2
Properties=species:S:1:pos:R:3:forces:R:3 energy=-2.228138418590325 pbc="F F F"
Li       0.00000000       0.00000000       0.00000000       0.00000000       0.00000000      -1.26556158
Li       0.00000000       0.00000000       2.36464646       0.00000000       0.00000000       1.26556158
2
Properties=species:S:1:pos:R:3:forces:R:3 energy=-2.2977989161968044 pbc="F F F"
Li       0.00000000       0.00000000       0.00000000       0.00000000       0.00000000      -1.07479179
Li       0.00000000       0.00000000       2.42424242       0.00000000       0.00000000       1.07479179
2
Properties=species:S:1:pos:R:3:forces:R:3 energy=-2.356579758802021 pbc="F F F"
Li       0.00000000       0.00000000       0.00000000       0.00000000       0.00000000      -0.90085554
Li       0.00000000       0.00000000       2.48383838       0.00000000       0.00000000       0.90085554
2
Properties=species:S:1:pos:R:3:forces:R:3 energy=-2.405542204162692 pbc="F F F"
Li       0.00000000       0.00000000       0.00000000       0.00000000       0.00000000      -0.74547052
Li       0.00000000       0.00000000       2.54343434       0.00000000       0.00000000       0.74547052
2
Properties=species:S:1:pos:R:3:forces:R:3 energy=-2.445808679624414 pbc="F F F"
Li       0.00000000       0.00000000       0.00000000       0.00000000       0.00000000      -0.60886902
Li       0.00000000       0.00000000       2.60303030       0.00000000       0.00000000       0.60886902
2
Properties=species:S:1:pos:R:3:forces:R:3 energy=-2.4784638576543965 pbc="F F F"
Li       0.00000000       0.00000000       0.00000000       0.00000000       0.00000000      -0.48979199
Li       0.00000000       0.00000000       2.66262626       0.00000000       0.00000000       0.48979199
2
Properties=species:S:1:pos:R:3:forces:R:3 energy=-2.504492176786769 pbc="F F F"
Li       0.00000000       0.00000000       0.00000000       0.00000000       0.00000000      -0.38604391
Li       0.00000000       0.00000000       2.72222222       0.00000000       0.00000000       0.38604391
2
Properties=species:S:1:pos:R:3:forces:R:3 energy=-2.5247291996332724 pbc="F F F"
Li       0.00000000       0.00000000       0.00000000       0.00000000       0.00000000      -0.29502544
Li       0.00000000       0.00000000       2.78181818       0.00000000       0.00000000       0.29502544
2
Properties=species:S:1:pos:R:3:forces:R:3 energy=-2.539859299446653 pbc="F F F"
Li       0.00000000       0.00000000       0.00000000       0.00000000       0.00000000      -0.21426387
Li       0.00000000       0.00000000       2.84141414       0.00000000       0.00000000       0.21426387
2
Properties=species:S:1:pos:R:3:forces:R:3 energy=-2.5504337672358646 pbc="F F F"
Li       0.00000000       0.00000000       0.00000000       0.00000000       0.00000000      -0.14187746
Li       0.00000000       0.00000000       2.90101010       0.00000000       0.00000000       0.14187746
2
Properties=species:S:1:pos:R:3:forces:R:3 energy=-2.5569209511287436 pbc="F F F"
Li       0.00000000       0.00000000       0.00000000       0.00000000       0.00000000      -0.07712036
Li       0.00000000       0.00000000       2.96060606       0.00000000       0.00000000       0.07712036
2
Properties=species:S:1:pos:R:3:forces:R:3 energy=-2.559795824643435 pbc="F F F"
Li       0.00000000       0.00000000       0.00000000       0.00000000       0.00000000      -0.02100776
Li       0.00000000       0.00000000       3.02020202       0.00000000       0.00000000       0.02100776
2
Properties=species:S:1:pos:R:3:forces:R:3 energy=-2.559645436131418 pbc="F F F"
Li       0.00000000       0.00000000       0.00000000       0.00000000       0.00000000       0.02408119
Li       0.00000000       0.00000000       3.07979798       0.00000000       0.00000000      -0.02408119
2
Properties=species:S:1:pos:R:3:forces:R:3 energy=-2.557130305867752 pbc="F F F"
Li       0.00000000       0.00000000       0.00000000       0.00000000       0.00000000       0.05935565
Li       0.00000000       0.00000000       3.13939394       0.00000000       0.00000000      -0.05935565
2
Properties=species:S:1:pos:R:3:forces:R:3 energy=-2.55250922021176 pbc="F F F"
Li       0.00000000       0.00000000       0.00000000       0.00000000       0.00000000       0.09798336
Li       0.00000000       0.00000000       3.19898990       0.00000000       0.00000000      -0.09798336
2
Properties=species:S:1:pos:R:3:forces:R:3 energy=-2.545020279095184 pbc="F F F"
Li       0.00000000       0.00000000       0.00000000       0.00000000       0.00000000       0.15753374
Li       0.00000000       0.00000000       3.25858586       0.00000000       0.00000000      -0.15753374
2
Properties=species:S:1:pos:R:3:forces:R:3 energy=-2.5333207072146884 pbc="F F F"
Li       0.00000000       0.00000000       0.00000000       0.00000000       0.00000000       0.23725149
Li       0.00000000       0.00000000       3.31818182       0.00000000       0.00000000      -0.23725149
2
Properties=species:S:1:pos:R:3:forces:R:3 energy=-2.516663130471163 pbc="F F F"
Li       0.00000000       0.00000000       0.00000000       0.00000000       0.00000000       0.32116899
Li       0.00000000       0.00000000       3.37777778       0.00000000       0.00000000      -0.32116899
2
Properties=species:S:1:pos:R:3:forces:R:3 energy=-2.4951979357804284 pbc="F F F"
Li       0.00000000       0.00000000       0.00000000       0.00000000       0.00000000       0.39746493
Li       0.00000000       0.00000000       3.43737374       0.00000000       0.00000000      -0.39746493
2
Properties=species:S:1:pos:R:3:forces:R:3 energy=-2.4695023513077627 pbc="F F F"
Li       0.00000000       0.00000000       0.00000000       0.00000000       0.00000000       0.46311575
Li       0.00000000       0.00000000       3.49696970       0.00000000       0.00000000      -0.46311575
2
Properties=species:S:1:pos:R:3:forces:R:3 energy=-2.4401861707498234 pbc="F F F"
Li       0.00000000       0.00000000       0.00000000       0.00000000       0.00000000       0.51928622
Li       0.00000000       0.00000000       3.55656566       0.00000000       0.00000000      -0.51928622
2
Properties=species:S:1:pos:R:3:forces:R:3 energy=-2.4077591218380103 pbc="F F F"
Li       0.00000000       0.00000000       0.00000000       0.00000000       0.00000000       0.56779861
Li       0.00000000       0.00000000       3.61616162       0.00000000       0.00000000      -0.56779861
2
Properties=species:S:1:pos:R:3:forces:R:3 energy=-2.3726364379927354 pbc="F F F"
Li       0.00000000       0.00000000       0.00000000       0.00000000       0.00000000       0.60990846
Li       0.00000000       0.00000000       3.67575758       0.00000000       0.00000000      -0.60990846
2
Properties=species:S:1:pos:R:3:forces:R:3 energy=-2.335179233462829 pbc="F F F"
Li       0.00000000       0.00000000       0.00000000       0.00000000       0.00000000       0.64615279
Li       0.00000000       0.00000000       3.73535354       0.00000000       0.00000000      -0.64615279
2
Properties=species:S:1:pos:R:3:forces:R:3 energy=-2.2957360718693094 pbc="F F F"
Li       0.00000000       0.00000000       0.00000000       0.00000000       0.00000000       0.67652678
Li       0.00000000       0.00000000       3.79494949       0.00000000       0.00000000      -0.67652678
2
Properties=species:S:1:pos:R:3:forces:R:3 energy=-2.2546659133641347 pbc="F F F"
Li       0.00000000       0.00000000       0.00000000       0.00000000       0.00000000       0.70069951
Li       0.00000000       0.00000000       3.85454545       0.00000000       0.00000000      -0.70069951
2
Properties=species:S:1:pos:R:3:forces:R:3 energy=-2.2123516718845604 pbc="F F F"
Li       0.00000000       0.00000000       0.00000000       0.00000000       0.00000000       0.71820033
Li       0.00000000       0.00000000       3.91414141       0.00000000       0.00000000      -0.71820033
2
Properties=species:S:1:pos:R:3:forces:R:3 energy=-2.169203986045782 pbc="F F F"
Li       0.00000000       0.00000000       0.00000000       0.00000000       0.00000000       0.72856629
Li       0.00000000       0.00000000       3.97373737       0.00000000       0.00000000      -0.72856629
2
Properties=species:S:1:pos:R:3:forces:R:3 energy=-2.1256619599317665 pbc="F F F"
Li       0.00000000       0.00000000       0.00000000       0.00000000       0.00000000       0.73140836
Li       0.00000000       0.00000000       4.03333333       0.00000000       0.00000000      -0.73140836
2
Properties=species:S:1:pos:R:3:forces:R:3 energy=-2.0821801091104075 pbc="F F F"
Li       0.00000000       0.00000000       0.00000000       0.00000000       0.00000000       0.72648591
Li       0.00000000       0.00000000       4.09292929       0.00000000       0.00000000      -0.72648591
2
Properties=species:S:1:pos:R:3:forces:R:3 energy=-2.0392263976082274 pbc="F F F"
Li       0.00000000       0.00000000       0.00000000       0.00000000       0.00000000       0.71372253
Li       0.00000000       0.00000000       4.15252525       0.00000000       0.00000000      -0.71372253
2
Properties=species:S:1:pos:R:3:forces:R:3 energy=-1.9972638720163425 pbc="F F F"
Li       0.00000000       0.00000000       0.00000000       0.00000000       0.00000000       0.69327098
Li       0.00000000       0.00000000       4.21212121       0.00000000       0.00000000      -0.69327098
2
Properties=species:S:1:pos:R:3:forces:R:3 energy=-1.956738431954955 pbc="F F F"
Li       0.00000000       0.00000000       0.00000000       0.00000000       0.00000000       0.66554964
Li       0.00000000       0.00000000       4.27171717       0.00000000       0.00000000      -0.66554964
2
Properties=species:S:1:pos:R:3:forces:R:3 energy=-1.918065281732069 pbc="F F F"
Li       0.00000000       0.00000000       0.00000000       0.00000000       0.00000000       0.63130730
Li       0.00000000       0.00000000       4.33131313       0.00000000       0.00000000      -0.63130730
2
Properties=species:S:1:pos:R:3:forces:R:3 energy=-1.8815998931300744 pbc="F F F"
Li       0.00000000       0.00000000       0.00000000       0.00000000       0.00000000       0.59164512
Li       0.00000000       0.00000000       4.39090909       0.00000000       0.00000000      -0.59164512
2
Properties=species:S:1:pos:R:3:forces:R:3 energy=-1.8476248238597628 pbc="F F F"
Li       0.00000000       0.00000000       0.00000000       0.00000000       0.00000000       0.54799521
Li       0.00000000       0.00000000       4.45050505       0.00000000       0.00000000      -0.54799521
2
Properties=species:S:1:pos:R:3:forces:R:3 energy=-1.81633004402781 pbc="F F F"
Li       0.00000000       0.00000000       0.00000000       0.00000000       0.00000000       0.50201291
Li       0.00000000       0.00000000       4.51010101       0.00000000       0.00000000      -0.50201291
2
Properties=species:S:1:pos:R:3:forces:R:3 energy=-1.7878013126470698 pbc="F F F"
Li       0.00000000       0.00000000       0.00000000       0.00000000       0.00000000       0.45539340
Li       0.00000000       0.00000000       4.56969697       0.00000000       0.00000000      -0.45539340
2
Properties=species:S:1:pos:R:3:forces:R:3 energy=-1.762032508046503 pbc="F F F"
Li       0.00000000       0.00000000       0.00000000       0.00000000       0.00000000       0.40964690
Li       0.00000000       0.00000000       4.62929293       0.00000000       0.00000000      -0.40964690
2
Properties=species:S:1:pos:R:3:forces:R:3 energy=-1.7389345210505631 pbc="F F F"
Li       0.00000000       0.00000000       0.00000000       0.00000000       0.00000000       0.36593848
Li       0.00000000       0.00000000       4.68888889       0.00000000       0.00000000      -0.36593848
2
Properties=species:S:1:pos:R:3:forces:R:3 energy=-1.7183611962549368 pbc="F F F"
Li       0.00000000       0.00000000       0.00000000       0.00000000       0.00000000       0.32496643
Li       0.00000000       0.00000000       4.74848485       0.00000000       0.00000000      -0.32496643
2
Properties=species:S:1:pos:R:3:forces:R:3 energy=-1.7001399708138296 pbc="F F F"
Li       0.00000000       0.00000000       0.00000000       0.00000000       0.00000000       0.28706771
Li       0.00000000       0.00000000       4.80808081       0.00000000       0.00000000      -0.28706771
2
Properties=species:S:1:pos:R:3:forces:R:3 energy=-1.6840813965119705 pbc="F F F"
Li       0.00000000       0.00000000       0.00000000       0.00000000       0.00000000       0.25237650
Li       0.00000000       0.00000000       4.86767677       0.00000000       0.00000000      -0.25237650
2
Properties=species:S:1:pos:R:3:forces:R:3 energy=-1.6699905014930334 pbc="F F F"
Li       0.00000000       0.00000000       0.00000000       0.00000000       0.00000000       0.22108980
Li       0.00000000       0.00000000       4.92727273       0.00000000       0.00000000      -0.22108980
2
Properties=species:S:1:pos:R:3:forces:R:3 energy=-1.6576539093207212 pbc="F F F"
Li       0.00000000       0.00000000       0.00000000       0.00000000       0.00000000       0.19358552
Li       0.00000000       0.00000000       4.98686869       0.00000000       0.00000000      -0.19358552
2
Properties=species:S:1:pos:R:3:forces:R:3 energy=-1.6468324004854813 pbc="F F F"
Li       0.00000000       0.00000000       0.00000000       0.00000000       0.00000000       0.17037268
Li       0.00000000       0.00000000       5.04646465       0.00000000       0.00000000      -0.17037268
2
Properties=species:S:1:pos:R:3:forces:R:3 energy=-1.6372563285985269 pbc="F F F"
Li       0.00000000       0.00000000       0.00000000       0.00000000       0.00000000       0.15174884
Li       0.00000000       0.00000000       5.10606061       0.00000000       0.00000000      -0.15174884
2
Properties=species:S:1:pos:R:3:forces:R:3 energy=-1.6286587589904198 pbc="F F F"
Li       0.00000000       0.00000000       0.00000000       0.00000000       0.00000000       0.13735645
Li       0.00000000       0.00000000       5.16565657       0.00000000       0.00000000      -0.13735645
2
Properties=species:S:1:pos:R:3:forces:R:3 energy=-1.6208283675413215 pbc="F F F"
Li       0.00000000       0.00000000       0.00000000       0.00000000       0.00000000       0.12570420
Li       0.00000000       0.00000000       5.22525253       0.00000000       0.00000000      -0.12570420
2
Properties=species:S:1:pos:R:3:forces:R:3 energy=-1.6136757452206083 pbc="F F F"
Li       0.00000000       0.00000000       0.00000000       0.00000000       0.00000000       0.11408634
Li       0.00000000       0.00000000       5.28484848       0.00000000       0.00000000      -0.11408634
2
Properties=species:S:1:pos:R:3:forces:R:3 energy=-1.6072830208295457 pbc="F F F"
Li       0.00000000       0.00000000       0.00000000       0.00000000       0.00000000       0.09995167
Li       0.00000000       0.00000000       5.34444444       0.00000000       0.00000000      -0.09995167
2
Properties=species:S:1:pos:R:3:forces:R:3 energy=-1.601778276598593 pbc="F F F"
Li       0.00000000       0.00000000       0.00000000       0.00000000       0.00000000       0.08533224
Li       0.00000000       0.00000000       5.40404040       0.00000000       0.00000000      -0.08533224
2
Properties=species:S:1:pos:R:3:forces:R:3 energy=-1.5969305815595107 pbc="F F F"
Li       0.00000000       0.00000000       0.00000000       0.00000000       0.00000000       0.07956516
Li       0.00000000       0.00000000       5.46363636       0.00000000       0.00000000      -0.07956516
2
Properties=species:S:1:pos:R:3:forces:R:3 energy=-1.592085470809314 pbc="F F F"
Li       0.00000000       0.00000000       0.00000000       0.00000000       0.00000000       0.08340374
Li       0.00000000       0.00000000       5.52323232       0.00000000       0.00000000      -0.08340374
2
Properties=species:S:1:pos:R:3:forces:R:3 energy=-1.5871858633694522 pbc="F F F"
Li       0.00000000       0.00000000       0.00000000       0.00000000       0.00000000       0.07814459
Li       0.00000000       0.00000000       5.58282828       0.00000000       0.00000000      -0.07814459
2
Properties=species:S:1:pos:R:3:forces:R:3 energy=-1.5830445223526568 pbc="F F F"
Li       0.00000000       0.00000000       0.00000000       0.00000000       0.00000000       0.06009810
Li       0.00000000       0.00000000       5.64242424       0.00000000       0.00000000      -0.06009810
2
Properties=species:S:1:pos:R:3:forces:R:3 energy=-1.5798579281869984 pbc="F F F"
Li       0.00000000       0.00000000       0.00000000       0.00000000       0.00000000       0.05003736
Li       0.00000000       0.00000000       5.70202020       0.00000000       0.00000000      -0.05003736
2
Properties=species:S:1:pos:R:3:forces:R:3 energy=-1.5766506124390702 pbc="F F F"
Li       0.00000000       0.00000000       0.00000000       0.00000000       0.00000000       0.06010367
Li       0.00000000       0.00000000       5.76161616       0.00000000       0.00000000      -0.06010367
2
Properties=species:S:1:pos:R:3:forces:R:3 energy=-1.5727553811462507 pbc="F F F"
Li       0.00000000       0.00000000       0.00000000       0.00000000       0.00000000       0.06707024
Li       0.00000000       0.00000000       5.82121212       0.00000000       0.00000000      -0.06707024
2
Properties=species:S:1:pos:R:3:forces:R:3 energy=-1.5691902169570586 pbc="F F F"
Li       0.00000000       0.00000000       0.00000000       0.00000000       0.00000000       0.04922642
Li       0.00000000       0.00000000       5.88080808       0.00000000       0.00000000      -0.04922642
2
Properties=species:S:1:pos:R:3:forces:R:3 energy=-1.5670477426223892 pbc="F F F"
Li       0.00000000       0.00000000       0.00000000       0.00000000       0.00000000       0.02297113
Li       0.00000000       0.00000000       5.94040404       0.00000000       0.00000000      -0.02297113
2
Properties=species:S:1:pos:R:3:forces:R:3 energy=-1.5661392691798504 pbc="F F F"
Li       0.00000000       0.00000000       0.00000000       0.00000000       0.00000000       0.01132155
Li       0.00000000       0.00000000       6.00000000       0.00000000       0.00000000      -0.01132155
