2
Properties=species:S:1:pos:R:3:forces:R:3 energy=-66757.23361748783 pbc="F F F"
Lu       0.00000000       0.00000000       0.00000000       0.00000000       0.00000000 -235043.29687500
Lu       0.00000000       0.00000000       0.18000000       0.00000000       0.00000000  235043.29687500
2
Properties=species:S:1:pos:R:3:forces:R:3 energy=-74359.94455498783 pbc="F F F"
Lu       0.00000000       0.00000000       0.00000000       0.00000000       0.00000000  -56253.86718750
Lu       0.00000000       0.00000000       0.23878788       0.00000000       0.00000000   56253.86718750
2
Properties=species:S:1:pos:R:3:forces:R:3 energy=-75198.85080498783 pbc="F F F"
Lu       0.00000000       0.00000000       0.00000000       0.00000000       0.00000000   21405.26953125
Lu       0.00000000       0.00000000       0.29757576       0.00000000       0.00000000  -21405.26953125
2
Properties=species:S:1:pos:R:3:forces:R:3 energy=-72138.12424248783 pbc="F F F"
Lu       0.00000000       0.00000000       0.00000000       0.00000000       0.00000000   82353.52343750
Lu       0.00000000       0.00000000       0.35636364       0.00000000       0.00000000  -82353.52343750
2
Properties=species:S:1:pos:R:3:forces:R:3 energy=-65474.81564873782 pbc="F F F"
Lu       0.00000000       0.00000000       0.00000000       0.00000000       0.00000000  144739.59375000
Lu       0.00000000       0.00000000       0.41515152       0.00000000       0.00000000 -144739.59375000
2
Properties=species:S:1:pos:R:3:forces:R:3 energy=-55162.08127373466 pbc="F F F"
Lu       0.00000000       0.00000000       0.00000000       0.00000000       0.00000000  204515.60937500
Lu       0.00000000       0.00000000       0.47393939       0.00000000       0.00000000 -204515.60937500
2
Properties=species:S:1:pos:R:3:forces:R:3 energy=-41810.19846123466 pbc="F F F"
Lu       0.00000000       0.00000000       0.00000000       0.00000000       0.00000000  244621.59375000
Lu       0.00000000       0.00000000       0.53272727       0.00000000       0.00000000 -244621.59375000
2
Properties=species:S:1:pos:R:3:forces:R:3 energy=-27211.86252373149 pbc="F F F"
Lu       0.00000000       0.00000000       0.00000000       0.00000000       0.00000000  243747.56250000
Lu       0.00000000       0.00000000       0.59151515       0.00000000       0.00000000 -243747.56250000
2
Properties=species:S:1:pos:R:3:forces:R:3 energy=-14058.970922164235 pbc="F F F"
Lu       0.00000000       0.00000000       0.00000000       0.00000000       0.00000000  201064.09375000
Lu       0.00000000       0.00000000       0.65030303       0.00000000       0.00000000 -201064.09375000
2
Properties=species:S:1:pos:R:3:forces:R:3 energy=-5037.538793250065 pbc="F F F"
Lu       0.00000000       0.00000000       0.00000000       0.00000000       0.00000000  105895.55468750
Lu       0.00000000       0.00000000       0.70909091       0.00000000       0.00000000 -105895.55468750
2
Properties=species:S:1:pos:R:3:forces:R:3 energy=-1027.3467766389992 pbc="F F F"
Lu       0.00000000       0.00000000       0.00000000       0.00000000       0.00000000   35459.63671875
Lu       0.00000000       0.00000000       0.76787879       0.00000000       0.00000000  -35459.63671875
2
Properties=species:S:1:pos:R:3:forces:R:3 energy=-130.4319816981174 pbc="F F F"
Lu       0.00000000       0.00000000       0.00000000       0.00000000       0.00000000    2261.18554688
Lu       0.00000000       0.00000000       0.82666667       0.00000000       0.00000000   -2261.18554688
2
Properties=species:S:1:pos:R:3:forces:R:3 energy=-62.68106996329615 pbc="F F F"
Lu       0.00000000       0.00000000       0.00000000       0.00000000       0.00000000     746.25872803
Lu       0.00000000       0.00000000       0.88545455       0.00000000       0.00000000    -746.25872803
2
Properties=species:S:1:pos:R:3:forces:R:3 energy=-27.899182875590657 pbc="F F F"
Lu       0.00000000       0.00000000       0.00000000       0.00000000       0.00000000     550.87768555
Lu       0.00000000       0.00000000       0.94424242       0.00000000       0.00000000    -550.87768555
2
Properties=species:S:1:pos:R:3:forces:R:3 energy=-49.04708245734278 pbc="F F F"
Lu       0.00000000       0.00000000       0.00000000       0.00000000       0.00000000    -104.08959961
Lu       0.00000000       0.00000000       1.00303030       0.00000000       0.00000000     104.08959961
2
Properties=species:S:1:pos:R:3:forces:R:3 energy=-53.95324084441979 pbc="F F F"
Lu       0.00000000       0.00000000       0.00000000       0.00000000       0.00000000     -46.42481613
Lu       0.00000000       0.00000000       1.06181818       0.00000000       0.00000000      46.42481613
2
Properties=species:S:1:pos:R:3:forces:R:3 energy=-55.410859475435316 pbc="F F F"
Lu       0.00000000       0.00000000       0.00000000       0.00000000       0.00000000     -10.54343891
Lu       0.00000000       0.00000000       1.12060606       0.00000000       0.00000000      10.54343891
2
Properties=species:S:1:pos:R:3:forces:R:3 energy=-55.32208754924492 pbc="F F F"
Lu       0.00000000       0.00000000       0.00000000       0.00000000       0.00000000      13.14321136
Lu       0.00000000       0.00000000       1.17939394       0.00000000       0.00000000     -13.14321136
2
Properties=species:S:1:pos:R:3:forces:R:3 energy=-54.17183411871404 pbc="F F F"
Lu       0.00000000       0.00000000       0.00000000       0.00000000       0.00000000      21.92516518
Lu       0.00000000       0.00000000       1.23818182       0.00000000       0.00000000     -21.92516518
2
Properties=species:S:1:pos:R:3:forces:R:3 energy=-53.16585631386859 pbc="F F F"
Lu       0.00000000       0.00000000       0.00000000       0.00000000       0.00000000      10.03500175
Lu       0.00000000       0.00000000       1.29696970       0.00000000       0.00000000     -10.03500175
2
Properties=species:S:1:pos:R:3:forces:R:3 energy=-53.09888908479081 pbc="F F F"
Lu       0.00000000       0.00000000       0.00000000       0.00000000       0.00000000      -7.64647150
Lu       0.00000000       0.00000000       1.35575758       0.00000000       0.00000000       7.64647150
2
Properties=species:S:1:pos:R:3:forces:R:3 energy=-53.97866481333467 pbc="F F F"
Lu       0.00000000       0.00000000       0.00000000       0.00000000       0.00000000     -21.14723587
Lu       0.00000000       0.00000000       1.41454545       0.00000000       0.00000000      21.14723587
2
Properties=species:S:1:pos:R:3:forces:R:3 energy=-55.4416352111881 pbc="F F F"
Lu       0.00000000       0.00000000       0.00000000       0.00000000       0.00000000     -27.49037552
Lu       0.00000000       0.00000000       1.47333333       0.00000000       0.00000000      27.49037552
2
Properties=species:S:1:pos:R:3:forces:R:3 energy=-57.102283143734574 pbc="F F F"
Lu       0.00000000       0.00000000       0.00000000       0.00000000       0.00000000     -28.25991440
Lu       0.00000000       0.00000000       1.53212121       0.00000000       0.00000000      28.25991440
2
Properties=species:S:1:pos:R:3:forces:R:3 energy=-58.69232475589258 pbc="F F F"
Lu       0.00000000       0.00000000       0.00000000       0.00000000       0.00000000     -25.45851517
Lu       0.00000000       0.00000000       1.59090909       0.00000000       0.00000000      25.45851517
2
Properties=species:S:1:pos:R:3:forces:R:3 energy=-60.09034966036604 pbc="F F F"
Lu       0.00000000       0.00000000       0.00000000       0.00000000       0.00000000     -22.25320053
Lu       0.00000000       0.00000000       1.64969697       0.00000000       0.00000000      22.25320053
2
Properties=species:S:1:pos:R:3:forces:R:3 energy=-61.31842586499749 pbc="F F F"
Lu       0.00000000       0.00000000       0.00000000       0.00000000       0.00000000     -19.48569679
Lu       0.00000000       0.00000000       1.70848485       0.00000000       0.00000000      19.48569679
2
Properties=species:S:1:pos:R:3:forces:R:3 energy=-62.37067490070975 pbc="F F F"
Lu       0.00000000       0.00000000       0.00000000       0.00000000       0.00000000     -16.25000572
Lu       0.00000000       0.00000000       1.76727273       0.00000000       0.00000000      16.25000572
2
Properties=species:S:1:pos:R:3:forces:R:3 energy=-63.23405048226355 pbc="F F F"
Lu       0.00000000       0.00000000       0.00000000       0.00000000       0.00000000     -13.27775669
Lu       0.00000000       0.00000000       1.82606061       0.00000000       0.00000000      13.27775669
2
Properties=species:S:1:pos:R:3:forces:R:3 energy=-63.958582342122796 pbc="F F F"
Lu       0.00000000       0.00000000       0.00000000       0.00000000       0.00000000     -11.63339138
Lu       0.00000000       0.00000000       1.88484848       0.00000000       0.00000000      11.63339138
2
Properties=species:S:1:pos:R:3:forces:R:3 energy=-64.63168042333771 pbc="F F F"
Lu       0.00000000       0.00000000       0.00000000       0.00000000       0.00000000     -11.49039078
Lu       0.00000000       0.00000000       1.94363636       0.00000000       0.00000000      11.49039078
2
Properties=species:S:1:pos:R:3:forces:R:3 energy=-65.32887570167338 pbc="F F F"
Lu       0.00000000       0.00000000       0.00000000       0.00000000       0.00000000     -12.30880165
Lu       0.00000000       0.00000000       2.00242424       0.00000000       0.00000000      12.30880165
2
Properties=species:S:1:pos:R:3:forces:R:3 energy=-66.07559310431085 pbc="F F F"
Lu       0.00000000       0.00000000       0.00000000       0.00000000       0.00000000     -12.96145439
Lu       0.00000000       0.00000000       2.06121212       0.00000000       0.00000000      12.96145439
2
Properties=species:S:1:pos:R:3:forces:R:3 energy=-66.82931397909753 pbc="F F F"
Lu       0.00000000       0.00000000       0.00000000       0.00000000       0.00000000     -12.45698452
Lu       0.00000000       0.00000000       2.12000000       0.00000000       0.00000000      12.45698452
2
Properties=species:S:1:pos:R:3:forces:R:3 energy=-67.51819227496703 pbc="F F F"
Lu       0.00000000       0.00000000       0.00000000       0.00000000       0.00000000     -10.85102940
Lu       0.00000000       0.00000000       2.17878788       0.00000000       0.00000000      10.85102940
2
Properties=species:S:1:pos:R:3:forces:R:3 energy=-68.09765702630222 pbc="F F F"
Lu       0.00000000       0.00000000       0.00000000       0.00000000       0.00000000      -8.85172462
Lu       0.00000000       0.00000000       2.23757576       0.00000000       0.00000000       8.85172462
2
Properties=species:S:1:pos:R:3:forces:R:3 energy=-68.56113927847822 pbc="F F F"
Lu       0.00000000       0.00000000       0.00000000       0.00000000       0.00000000      -6.95203400
Lu       0.00000000       0.00000000       2.29636364       0.00000000       0.00000000       6.95203400
2
Properties=species:S:1:pos:R:3:forces:R:3 energy=-68.91987707261879 pbc="F F F"
Lu       0.00000000       0.00000000       0.00000000       0.00000000       0.00000000      -5.29596376
Lu       0.00000000       0.00000000       2.35515152       0.00000000       0.00000000       5.29596376
2
Properties=species:S:1:pos:R:3:forces:R:3 energy=-69.1890452174258 pbc="F F F"
Lu       0.00000000       0.00000000       0.00000000       0.00000000       0.00000000      -3.90702629
Lu       0.00000000       0.00000000       2.41393939       0.00000000       0.00000000       3.90702629
2
Properties=species:S:1:pos:R:3:forces:R:3 energy=-69.38485611608951 pbc="F F F"
Lu       0.00000000       0.00000000       0.00000000       0.00000000       0.00000000      -2.80377126
Lu       0.00000000       0.00000000       2.47272727       0.00000000       0.00000000       2.80377126
2
Properties=species:S:1:pos:R:3:forces:R:3 energy=-69.52456738934754 pbc="F F F"
Lu       0.00000000       0.00000000       0.00000000       0.00000000       0.00000000      -1.99891150
Lu       0.00000000       0.00000000       2.53151515       0.00000000       0.00000000       1.99891150
2
Properties=species:S:1:pos:R:3:forces:R:3 energy=-69.62540614035936 pbc="F F F"
Lu       0.00000000       0.00000000       0.00000000       0.00000000       0.00000000      -1.47464263
Lu       0.00000000       0.00000000       2.59030303       0.00000000       0.00000000       1.47464263
2
Properties=species:S:1:pos:R:3:forces:R:3 energy=-69.7023182706483 pbc="F F F"
Lu       0.00000000       0.00000000       0.00000000       0.00000000       0.00000000      -1.17192864
Lu       0.00000000       0.00000000       2.64909091       0.00000000       0.00000000       1.17192864
2
Properties=species:S:1:pos:R:3:forces:R:3 energy=-69.765755965191 pbc="F F F"
Lu       0.00000000       0.00000000       0.00000000       0.00000000       0.00000000      -0.99960071
Lu       0.00000000       0.00000000       2.70787879       0.00000000       0.00000000       0.99960071
2
Properties=species:S:1:pos:R:3:forces:R:3 energy=-69.8204722496653 pbc="F F F"
Lu       0.00000000       0.00000000       0.00000000       0.00000000       0.00000000      -0.86023408
Lu       0.00000000       0.00000000       2.76666667       0.00000000       0.00000000       0.86023408
2
Properties=species:S:1:pos:R:3:forces:R:3 energy=-69.86608555772607 pbc="F F F"
Lu       0.00000000       0.00000000       0.00000000       0.00000000       0.00000000      -0.68084490
Lu       0.00000000       0.00000000       2.82545455       0.00000000       0.00000000       0.68084490
2
Properties=species:S:1:pos:R:3:forces:R:3 energy=-69.8990938769062 pbc="F F F"
Lu       0.00000000       0.00000000       0.00000000       0.00000000       0.00000000      -0.42964983
Lu       0.00000000       0.00000000       2.88424242       0.00000000       0.00000000       0.42964983
2
Properties=species:S:1:pos:R:3:forces:R:3 energy=-69.91526278870276 pbc="F F F"
Lu       0.00000000       0.00000000       0.00000000       0.00000000       0.00000000      -0.11073076
Lu       0.00000000       0.00000000       2.94303030       0.00000000       0.00000000       0.11073076
2
Properties=species:S:1:pos:R:3:forces:R:3 energy=-69.91122760341456 pbc="F F F"
Lu       0.00000000       0.00000000       0.00000000       0.00000000       0.00000000       0.25344157
Lu       0.00000000       0.00000000       3.00181818       0.00000000       0.00000000      -0.25344157
2
Properties=species:S:1:pos:R:3:forces:R:3 energy=-69.88508846875477 pbc="F F F"
Lu       0.00000000       0.00000000       0.00000000       0.00000000       0.00000000       0.63662153
Lu       0.00000000       0.00000000       3.06060606       0.00000000       0.00000000      -0.63662153
2
Properties=species:S:1:pos:R:3:forces:R:3 energy=-69.83648668438713 pbc="F F F"
Lu       0.00000000       0.00000000       0.00000000       0.00000000       0.00000000       1.01387179
Lu       0.00000000       0.00000000       3.11939394       0.00000000       0.00000000      -1.01387179
2
Properties=species:S:1:pos:R:3:forces:R:3 energy=-69.7664901818123 pbc="F F F"
Lu       0.00000000       0.00000000       0.00000000       0.00000000       0.00000000       1.36035001
Lu       0.00000000       0.00000000       3.17818182       0.00000000       0.00000000      -1.36035001
2
Properties=species:S:1:pos:R:3:forces:R:3 energy=-69.67763942428022 pbc="F F F"
Lu       0.00000000       0.00000000       0.00000000       0.00000000       0.00000000       1.65099168
Lu       0.00000000       0.00000000       3.23696970       0.00000000       0.00000000      -1.65099168
2
Properties=species:S:1:pos:R:3:forces:R:3 energy=-69.57386333297868 pbc="F F F"
Lu       0.00000000       0.00000000       0.00000000       0.00000000       0.00000000       1.86615360
Lu       0.00000000       0.00000000       3.29575758       0.00000000       0.00000000      -1.86615360
2
Properties=species:S:1:pos:R:3:forces:R:3 energy=-69.45982332066251 pbc="F F F"
Lu       0.00000000       0.00000000       0.00000000       0.00000000       0.00000000       2.00067472
Lu       0.00000000       0.00000000       3.35454545       0.00000000       0.00000000      -2.00067472
2
Properties=species:S:1:pos:R:3:forces:R:3 energy=-69.33995184855858 pbc="F F F"
Lu       0.00000000       0.00000000       0.00000000       0.00000000       0.00000000       2.06793404
Lu       0.00000000       0.00000000       3.41333333       0.00000000       0.00000000      -2.06793404
2
Properties=species:S:1:pos:R:3:forces:R:3 energy=-69.21750648281413 pbc="F F F"
Lu       0.00000000       0.00000000       0.00000000       0.00000000       0.00000000       2.09289289
Lu       0.00000000       0.00000000       3.47212121       0.00000000       0.00000000      -2.09289289
2
Properties=species:S:1:pos:R:3:forces:R:3 energy=-69.0942646521913 pbc="F F F"
Lu       0.00000000       0.00000000       0.00000000       0.00000000       0.00000000       2.09787345
Lu       0.00000000       0.00000000       3.53090909       0.00000000       0.00000000      -2.09787345
2
Properties=species:S:1:pos:R:3:forces:R:3 energy=-68.97107300407114 pbc="F F F"
Lu       0.00000000       0.00000000       0.00000000       0.00000000       0.00000000       2.09092450
Lu       0.00000000       0.00000000       3.58969697       0.00000000       0.00000000      -2.09092450
2
Properties=species:S:1:pos:R:3:forces:R:3 energy=-68.84880869549332 pbc="F F F"
Lu       0.00000000       0.00000000       0.00000000       0.00000000       0.00000000       2.06392646
Lu       0.00000000       0.00000000       3.64848485       0.00000000       0.00000000      -2.06392646
2
Properties=species:S:1:pos:R:3:forces:R:3 energy=-68.72912706906833 pbc="F F F"
Lu       0.00000000       0.00000000       0.00000000       0.00000000       0.00000000       2.00011325
Lu       0.00000000       0.00000000       3.70727273       0.00000000       0.00000000      -2.00011325
2
Properties=species:S:1:pos:R:3:forces:R:3 energy=-68.61464474894291 pbc="F F F"
Lu       0.00000000       0.00000000       0.00000000       0.00000000       0.00000000       1.88560879
Lu       0.00000000       0.00000000       3.76606061       0.00000000       0.00000000      -1.88560879
2
Properties=species:S:1:pos:R:3:forces:R:3 energy=-68.50846664526549 pbc="F F F"
Lu       0.00000000       0.00000000       0.00000000       0.00000000       0.00000000       1.71865499
Lu       0.00000000       0.00000000       3.82484848       0.00000000       0.00000000      -1.71865499
2
Properties=species:S:1:pos:R:3:forces:R:3 energy=-68.41335432325586 pbc="F F F"
Lu       0.00000000       0.00000000       0.00000000       0.00000000       0.00000000       1.51220572
Lu       0.00000000       0.00000000       3.88363636       0.00000000       0.00000000      -1.51220572
2
Properties=species:S:1:pos:R:3:forces:R:3 energy=-68.33098597094256 pbc="F F F"
Lu       0.00000000       0.00000000       0.00000000       0.00000000       0.00000000       1.28962314
Lu       0.00000000       0.00000000       3.94242424       0.00000000       0.00000000      -1.28962314
2
Properties=species:S:1:pos:R:3:forces:R:3 energy=-68.26152914990126 pbc="F F F"
Lu       0.00000000       0.00000000       0.00000000       0.00000000       0.00000000       1.07674718
Lu       0.00000000       0.00000000       4.00121212       0.00000000       0.00000000      -1.07674718
2
Properties=species:S:1:pos:R:3:forces:R:3 energy=-68.20377048545842 pbc="F F F"
Lu       0.00000000       0.00000000       0.00000000       0.00000000       0.00000000       0.89470536
Lu       0.00000000       0.00000000       4.06000000       0.00000000       0.00000000      -0.89470536
2
Properties=species:S:1:pos:R:3:forces:R:3 energy=-68.15548189188387 pbc="F F F"
Lu       0.00000000       0.00000000       0.00000000       0.00000000       0.00000000       0.75613391
Lu       0.00000000       0.00000000       4.11878788       0.00000000       0.00000000      -0.75613391
2
Properties=species:S:1:pos:R:3:forces:R:3 energy=-68.11393936646729 pbc="F F F"
Lu       0.00000000       0.00000000       0.00000000       0.00000000       0.00000000       0.66481513
Lu       0.00000000       0.00000000       4.17757576       0.00000000       0.00000000      -0.66481513
2
Properties=species:S:1:pos:R:3:forces:R:3 energy=-68.07644942407653 pbc="F F F"
Lu       0.00000000       0.00000000       0.00000000       0.00000000       0.00000000       0.61751664
Lu       0.00000000       0.00000000       4.23636364       0.00000000       0.00000000      -0.61751664
2
Properties=species:S:1:pos:R:3:forces:R:3 energy=-68.0406237395215 pbc="F F F"
Lu       0.00000000       0.00000000       0.00000000       0.00000000       0.00000000       0.60640597
Lu       0.00000000       0.00000000       4.29515152       0.00000000       0.00000000      -0.60640597
2
Properties=species:S:1:pos:R:3:forces:R:3 energy=-68.00463858023049 pbc="F F F"
Lu       0.00000000       0.00000000       0.00000000       0.00000000       0.00000000       0.62111902
Lu       0.00000000       0.00000000       4.35393939       0.00000000       0.00000000      -0.62111902
2
Properties=species:S:1:pos:R:3:forces:R:3 energy=-67.96731869316001 pbc="F F F"
Lu       0.00000000       0.00000000       0.00000000       0.00000000       0.00000000       0.65018451
Lu       0.00000000       0.00000000       4.41272727       0.00000000       0.00000000      -0.65018451
2
Properties=species:S:1:pos:R:3:forces:R:3 energy=-67.92813733964084 pbc="F F F"
Lu       0.00000000       0.00000000       0.00000000       0.00000000       0.00000000       0.68204868
Lu       0.00000000       0.00000000       4.47151515       0.00000000       0.00000000      -0.68204868
2
Properties=species:S:1:pos:R:3:forces:R:3 energy=-67.88727731786298 pbc="F F F"
Lu       0.00000000       0.00000000       0.00000000       0.00000000       0.00000000       0.70593864
Lu       0.00000000       0.00000000       4.53030303       0.00000000       0.00000000      -0.70593864
2
Properties=species:S:1:pos:R:3:forces:R:3 energy=-67.8454707455905 pbc="F F F"
Lu       0.00000000       0.00000000       0.00000000       0.00000000       0.00000000       0.71294880
Lu       0.00000000       0.00000000       4.58909091       0.00000000       0.00000000      -0.71294880
2
Properties=species:S:1:pos:R:3:forces:R:3 energy=-67.8038998875361 pbc="F F F"
Lu       0.00000000       0.00000000       0.00000000       0.00000000       0.00000000       0.69721776
Lu       0.00000000       0.00000000       4.64787879       0.00000000       0.00000000      -0.69721776
2
Properties=species:S:1:pos:R:3:forces:R:3 energy=-67.76398353548208 pbc="F F F"
Lu       0.00000000       0.00000000       0.00000000       0.00000000       0.00000000       0.65695041
Lu       0.00000000       0.00000000       4.70666667       0.00000000       0.00000000      -0.65695041
2
Properties=species:S:1:pos:R:3:forces:R:3 energy=-67.72709471434699 pbc="F F F"
Lu       0.00000000       0.00000000       0.00000000       0.00000000       0.00000000       0.59481102
Lu       0.00000000       0.00000000       4.76545455       0.00000000       0.00000000      -0.59481102
2
Properties=species:S:1:pos:R:3:forces:R:3 energy=-67.69434707497793 pbc="F F F"
Lu       0.00000000       0.00000000       0.00000000       0.00000000       0.00000000       0.51723081
Lu       0.00000000       0.00000000       4.82424242       0.00000000       0.00000000      -0.51723081
2
Properties=species:S:1:pos:R:3:forces:R:3 energy=-67.66641179501735 pbc="F F F"
Lu       0.00000000       0.00000000       0.00000000       0.00000000       0.00000000       0.43277615
Lu       0.00000000       0.00000000       4.88303030       0.00000000       0.00000000      -0.43277615
2
Properties=species:S:1:pos:R:3:forces:R:3 energy=-67.64343363655641 pbc="F F F"
Lu       0.00000000       0.00000000       0.00000000       0.00000000       0.00000000       0.34999630
Lu       0.00000000       0.00000000       4.94181818       0.00000000       0.00000000      -0.34999630
2
Properties=species:S:1:pos:R:3:forces:R:3 energy=-67.62509200029803 pbc="F F F"
Lu       0.00000000       0.00000000       0.00000000       0.00000000       0.00000000       0.27568939
Lu       0.00000000       0.00000000       5.00060606       0.00000000       0.00000000      -0.27568939
2
Properties=species:S:1:pos:R:3:forces:R:3 energy=-67.61076878807576 pbc="F F F"
Lu       0.00000000       0.00000000       0.00000000       0.00000000       0.00000000       0.21399376
Lu       0.00000000       0.00000000       5.05939394       0.00000000       0.00000000      -0.21399376
2
Properties=species:S:1:pos:R:3:forces:R:3 energy=-67.59965519537026 pbc="F F F"
Lu       0.00000000       0.00000000       0.00000000       0.00000000       0.00000000       0.16658817
Lu       0.00000000       0.00000000       5.11818182       0.00000000       0.00000000      -0.16658817
2
Properties=species:S:1:pos:R:3:forces:R:3 energy=-67.59089668564454 pbc="F F F"
Lu       0.00000000       0.00000000       0.00000000       0.00000000       0.00000000       0.13354720
Lu       0.00000000       0.00000000       5.17696970       0.00000000       0.00000000      -0.13354720
2
Properties=species:S:1:pos:R:3:forces:R:3 energy=-67.58368454149435 pbc="F F F"
Lu       0.00000000       0.00000000       0.00000000       0.00000000       0.00000000       0.11415336
Lu       0.00000000       0.00000000       5.23575758       0.00000000       0.00000000      -0.11415336
2
Properties=species:S:1:pos:R:3:forces:R:3 energy=-67.5772406169466 pbc="F F F"
Lu       0.00000000       0.00000000       0.00000000       0.00000000       0.00000000       0.10685893
Lu       0.00000000       0.00000000       5.29454545       0.00000000       0.00000000      -0.10685893
2
Properties=species:S:1:pos:R:3:forces:R:3 energy=-67.57094703083061 pbc="F F F"
Lu       0.00000000       0.00000000       0.00000000       0.00000000       0.00000000       0.10806290
Lu       0.00000000       0.00000000       5.35333333       0.00000000       0.00000000      -0.10806290
2
Properties=species:S:1:pos:R:3:forces:R:3 energy=-67.5644987673402 pbc="F F F"
Lu       0.00000000       0.00000000       0.00000000       0.00000000       0.00000000       0.11095318
Lu       0.00000000       0.00000000       5.41212121       0.00000000       0.00000000      -0.11095318
2
Properties=species:S:1:pos:R:3:forces:R:3 energy=-67.55801047488565 pbc="F F F"
Lu       0.00000000       0.00000000       0.00000000       0.00000000       0.00000000       0.10877537
Lu       0.00000000       0.00000000       5.47090909       0.00000000       0.00000000      -0.10877537
2
Properties=species:S:1:pos:R:3:forces:R:3 energy=-67.55175708410282 pbc="F F F"
Lu       0.00000000       0.00000000       0.00000000       0.00000000       0.00000000       0.10447056
Lu       0.00000000       0.00000000       5.52969697       0.00000000       0.00000000      -0.10447056
2
Properties=species:S:1:pos:R:3:forces:R:3 energy=-67.54569314174236 pbc="F F F"
Lu       0.00000000       0.00000000       0.00000000       0.00000000       0.00000000       0.10128885
Lu       0.00000000       0.00000000       5.58848485       0.00000000       0.00000000      -0.10128885
2
Properties=species:S:1:pos:R:3:forces:R:3 energy=-67.53998688412608 pbc="F F F"
Lu       0.00000000       0.00000000       0.00000000       0.00000000       0.00000000       0.09150449
Lu       0.00000000       0.00000000       5.64727273       0.00000000       0.00000000      -0.09150449
2
Properties=species:S:1:pos:R:3:forces:R:3 energy=-67.53504310790753 pbc="F F F"
Lu       0.00000000       0.00000000       0.00000000       0.00000000       0.00000000       0.07691325
Lu       0.00000000       0.00000000       5.70606061       0.00000000       0.00000000      -0.07691325
2
Properties=species:S:1:pos:R:3:forces:R:3 energy=-67.53074023378662 pbc="F F F"
Lu       0.00000000       0.00000000       0.00000000       0.00000000       0.00000000       0.07159998
Lu       0.00000000       0.00000000       5.76484848       0.00000000       0.00000000      -0.07159998
2
Properties=species:S:1:pos:R:3:forces:R:3 energy=-67.52645321211631 pbc="F F F"
Lu       0.00000000       0.00000000       0.00000000       0.00000000       0.00000000       0.07348099
Lu       0.00000000       0.00000000       5.82363636       0.00000000       0.00000000      -0.07348099
2
Properties=species:S:1:pos:R:3:forces:R:3 energy=-67.52256410817373 pbc="F F F"
Lu       0.00000000       0.00000000       0.00000000       0.00000000       0.00000000       0.05436676
Lu       0.00000000       0.00000000       5.88242424       0.00000000       0.00000000      -0.05436676
2
Properties=species:S:1:pos:R:3:forces:R:3 energy=-67.5203553001402 pbc="F F F"
Lu       0.00000000       0.00000000       0.00000000       0.00000000       0.00000000       0.02109632
Lu       0.00000000       0.00000000       5.94121212       0.00000000       0.00000000      -0.02109632
2
Properties=species:S:1:pos:R:3:forces:R:3 energy=-67.51970540512063 pbc="F F F"
Lu       0.00000000       0.00000000       0.00000000       0.00000000       0.00000000       0.00590325
Lu       0.00000000       0.00000000       6.00000000       0.00000000       0.00000000      -0.00590325
