2
Properties=species:S:1:pos:R:3:forces:R:3 energy=-8091.560765925322 pbc="F F F"
Lu       0.00000000       0.00000000       0.00000000       0.00000000       0.00000000 -1831946.12500000
Lu       0.00000000       0.00000000       0.10000000       0.00000000       0.00000000 1831946.12500000
2
Properties=species:S:1:pos:R:3:forces:R:3 energy=-60667.16721123782 pbc="F F F"
Lu       0.00000000       0.00000000       0.00000000       0.00000000       0.00000000 -373676.31250000
Lu       0.00000000       0.00000000       0.15959596       0.00000000       0.00000000  373676.31250000
2
Properties=species:S:1:pos:R:3:forces:R:3 energy=-72887.45236748783 pbc="F F F"
Lu       0.00000000       0.00000000       0.00000000       0.00000000       0.00000000  -96087.53906250
Lu       0.00000000       0.00000000       0.21919192       0.00000000       0.00000000   96087.53906250
2
Properties=species:S:1:pos:R:3:forces:R:3 energy=-75405.21017998783 pbc="F F F"
Lu       0.00000000       0.00000000       0.00000000       0.00000000       0.00000000     269.20089722
Lu       0.00000000       0.00000000       0.27878788       0.00000000       0.00000000    -269.20089722
2
Properties=species:S:1:pos:R:3:forces:R:3 energy=-73452.12424248783 pbc="F F F"
Lu       0.00000000       0.00000000       0.00000000       0.00000000       0.00000000   63828.12109375
Lu       0.00000000       0.00000000       0.33838384       0.00000000       0.00000000  -63828.12109375
2
Properties=species:S:1:pos:R:3:forces:R:3 energy=-67801.17111748783 pbc="F F F"
Lu       0.00000000       0.00000000       0.00000000       0.00000000       0.00000000  126306.13281250
Lu       0.00000000       0.00000000       0.39797980       0.00000000       0.00000000 -126306.13281250
2
Properties=species:S:1:pos:R:3:forces:R:3 energy=-58383.76486748466 pbc="F F F"
Lu       0.00000000       0.00000000       0.00000000       0.00000000       0.00000000  188947.57812500
Lu       0.00000000       0.00000000       0.45757576       0.00000000       0.00000000 -188947.57812500
2
Properties=species:S:1:pos:R:3:forces:R:3 energy=-45561.47580498466 pbc="F F F"
Lu       0.00000000       0.00000000       0.00000000       0.00000000       0.00000000  237179.82812500
Lu       0.00000000       0.00000000       0.51717172       0.00000000       0.00000000 -237179.82812500
2
Properties=species:S:1:pos:R:3:forces:R:3 energy=-30847.16721123149 pbc="F F F"
Lu       0.00000000       0.00000000       0.00000000       0.00000000       0.00000000  248722.40625000
Lu       0.00000000       0.00000000       0.57676768       0.00000000       0.00000000 -248722.40625000
2
Properties=species:S:1:pos:R:3:forces:R:3 energy=-16958.11252372832 pbc="F F F"
Lu       0.00000000       0.00000000       0.00000000       0.00000000       0.00000000  208714.43750000
Lu       0.00000000       0.00000000       0.63636364       0.00000000       0.00000000 -208714.43750000
2
Properties=species:S:1:pos:R:3:forces:R:3 energy=-6549.2824455954 pbc="F F F"
Lu       0.00000000       0.00000000       0.00000000       0.00000000       0.00000000  124396.53906250
Lu       0.00000000       0.00000000       0.69595960       0.00000000       0.00000000 -124396.53906250
2
Properties=species:S:1:pos:R:3:forces:R:3 energy=-1536.7446037890206 pbc="F F F"
Lu       0.00000000       0.00000000       0.00000000       0.00000000       0.00000000   47512.84375000
Lu       0.00000000       0.00000000       0.75555556       0.00000000       0.00000000  -47512.84375000
2
Properties=species:S:1:pos:R:3:forces:R:3 energy=-171.89804615757802 pbc="F F F"
Lu       0.00000000       0.00000000       0.00000000       0.00000000       0.00000000    5160.30371094
Lu       0.00000000       0.00000000       0.81515152       0.00000000       0.00000000   -5160.30371094
2
Properties=species:S:1:pos:R:3:forces:R:3 energy=-70.60598528176858 pbc="F F F"
Lu       0.00000000       0.00000000       0.00000000       0.00000000       0.00000000     655.80413818
Lu       0.00000000       0.00000000       0.87474747       0.00000000       0.00000000    -655.80413818
2
Properties=species:S:1:pos:R:3:forces:R:3 energy=-37.44640883565865 pbc="F F F"
Lu       0.00000000       0.00000000       0.00000000       0.00000000       0.00000000    1134.95190430
Lu       0.00000000       0.00000000       0.93434343       0.00000000       0.00000000   -1134.95190430
2
Properties=species:S:1:pos:R:3:forces:R:3 energy=-48.07422403789117 pbc="F F F"
Lu       0.00000000       0.00000000       0.00000000       0.00000000       0.00000000    -114.73365784
Lu       0.00000000       0.00000000       0.99393939       0.00000000       0.00000000     114.73365784
2
Properties=species:S:1:pos:R:3:forces:R:3 energy=-53.52672718046434 pbc="F F F"
Lu       0.00000000       0.00000000       0.00000000       0.00000000       0.00000000     -56.84945679
Lu       0.00000000       0.00000000       1.05353535       0.00000000       0.00000000      56.84945679
2
Properties=species:S:1:pos:R:3:forces:R:3 energy=-55.321050070382 pbc="F F F"
Lu       0.00000000       0.00000000       0.00000000       0.00000000       0.00000000     -13.49112415
Lu       0.00000000       0.00000000       1.11313131       0.00000000       0.00000000      13.49112415
2
Properties=species:S:1:pos:R:3:forces:R:3 energy=-55.40188721559973 pbc="F F F"
Lu       0.00000000       0.00000000       0.00000000       0.00000000       0.00000000      10.76159382
Lu       0.00000000       0.00000000       1.17272727       0.00000000       0.00000000     -10.76159382
2
Properties=species:S:1:pos:R:3:forces:R:3 energy=-54.30104174246931 pbc="F F F"
Lu       0.00000000       0.00000000       0.00000000       0.00000000       0.00000000      22.15968895
Lu       0.00000000       0.00000000       1.23232323       0.00000000       0.00000000     -22.15968895
2
Properties=species:S:1:pos:R:3:forces:R:3 energy=-53.220253912715506 pbc="F F F"
Lu       0.00000000       0.00000000       0.00000000       0.00000000       0.00000000      11.48960209
Lu       0.00000000       0.00000000       1.29191919       0.00000000       0.00000000     -11.48960209
2
Properties=species:S:1:pos:R:3:forces:R:3 energy=-53.06896661686227 pbc="F F F"
Lu       0.00000000       0.00000000       0.00000000       0.00000000       0.00000000      -6.43531036
Lu       0.00000000       0.00000000       1.35151515       0.00000000       0.00000000       6.43531036
2
Properties=species:S:1:pos:R:3:forces:R:3 energy=-53.90704770270894 pbc="F F F"
Lu       0.00000000       0.00000000       0.00000000       0.00000000       0.00000000     -20.55549622
Lu       0.00000000       0.00000000       1.41111111       0.00000000       0.00000000      20.55549622
2
Properties=species:S:1:pos:R:3:forces:R:3 energy=-55.36961755734948 pbc="F F F"
Lu       0.00000000       0.00000000       0.00000000       0.00000000       0.00000000     -27.34411049
Lu       0.00000000       0.00000000       1.47070707       0.00000000       0.00000000      27.34411049
2
Properties=species:S:1:pos:R:3:forces:R:3 energy=-57.05085722415188 pbc="F F F"
Lu       0.00000000       0.00000000       0.00000000       0.00000000       0.00000000     -28.30018806
Lu       0.00000000       0.00000000       1.53030303       0.00000000       0.00000000      28.30018806
2
Properties=species:S:1:pos:R:3:forces:R:3 energy=-58.66656792787463 pbc="F F F"
Lu       0.00000000       0.00000000       0.00000000       0.00000000       0.00000000     -25.51976776
Lu       0.00000000       0.00000000       1.58989899       0.00000000       0.00000000      25.51976776
2
Properties=species:S:1:pos:R:3:forces:R:3 energy=-60.08584831917651 pbc="F F F"
Lu       0.00000000       0.00000000       0.00000000       0.00000000       0.00000000     -22.26269341
Lu       0.00000000       0.00000000       1.64949495       0.00000000       0.00000000      22.26269341
2
Properties=species:S:1:pos:R:3:forces:R:3 energy=-61.330232341947216 pbc="F F F"
Lu       0.00000000       0.00000000       0.00000000       0.00000000       0.00000000     -19.45491600
Lu       0.00000000       0.00000000       1.70909091       0.00000000       0.00000000      19.45491600
2
Properties=species:S:1:pos:R:3:forces:R:3 energy=-62.39359739440413 pbc="F F F"
Lu       0.00000000       0.00000000       0.00000000       0.00000000       0.00000000     -16.16998482
Lu       0.00000000       0.00000000       1.76868687       0.00000000       0.00000000      16.16998482
2
Properties=species:S:1:pos:R:3:forces:R:3 energy=-63.26345412760529 pbc="F F F"
Lu       0.00000000       0.00000000       0.00000000       0.00000000       0.00000000     -13.18750954
Lu       0.00000000       0.00000000       1.82828283       0.00000000       0.00000000      13.18750954
2
Properties=species:S:1:pos:R:3:forces:R:3 energy=-63.993765226895476 pbc="F F F"
Lu       0.00000000       0.00000000       0.00000000       0.00000000       0.00000000     -11.59134197
Lu       0.00000000       0.00000000       1.88787879       0.00000000       0.00000000      11.59134197
2
Properties=species:S:1:pos:R:3:forces:R:3 energy=-64.67583925593037 pbc="F F F"
Lu       0.00000000       0.00000000       0.00000000       0.00000000       0.00000000     -11.52403355
Lu       0.00000000       0.00000000       1.94747475       0.00000000       0.00000000      11.52403355
2
Properties=species:S:1:pos:R:3:forces:R:3 energy=-65.38624097660185 pbc="F F F"
Lu       0.00000000       0.00000000       0.00000000       0.00000000       0.00000000     -12.38351250
Lu       0.00000000       0.00000000       2.00707071       0.00000000       0.00000000      12.38351250
2
Properties=species:S:1:pos:R:3:forces:R:3 energy=-66.146325026189 pbc="F F F"
Lu       0.00000000       0.00000000       0.00000000       0.00000000       0.00000000     -12.97127914
Lu       0.00000000       0.00000000       2.06666667       0.00000000       0.00000000      12.97127914
2
Properties=species:S:1:pos:R:3:forces:R:3 energy=-66.9069275483186 pbc="F F F"
Lu       0.00000000       0.00000000       0.00000000       0.00000000       0.00000000     -12.32754040
Lu       0.00000000       0.00000000       2.12626263       0.00000000       0.00000000      12.32754040
2
Properties=species:S:1:pos:R:3:forces:R:3 energy=-67.59408914963912 pbc="F F F"
Lu       0.00000000       0.00000000       0.00000000       0.00000000       0.00000000     -10.61757469
Lu       0.00000000       0.00000000       2.18585859       0.00000000       0.00000000      10.61757469
2
Properties=species:S:1:pos:R:3:forces:R:3 energy=-68.1663440281076 pbc="F F F"
Lu       0.00000000       0.00000000       0.00000000       0.00000000       0.00000000      -8.58558369
Lu       0.00000000       0.00000000       2.24545455       0.00000000       0.00000000       8.58558369
2
Properties=species:S:1:pos:R:3:forces:R:3 energy=-68.62039623143356 pbc="F F F"
Lu       0.00000000       0.00000000       0.00000000       0.00000000       0.00000000      -6.69102859
Lu       0.00000000       0.00000000       2.30505051       0.00000000       0.00000000       6.69102859
2
Properties=species:S:1:pos:R:3:forces:R:3 energy=-68.96900967964699 pbc="F F F"
Lu       0.00000000       0.00000000       0.00000000       0.00000000       0.00000000      -5.05314398
Lu       0.00000000       0.00000000       2.36464646       0.00000000       0.00000000       5.05314398
2
Properties=species:S:1:pos:R:3:forces:R:3 energy=-69.2281831528913 pbc="F F F"
Lu       0.00000000       0.00000000       0.00000000       0.00000000       0.00000000      -3.69243479
Lu       0.00000000       0.00000000       2.42424242       0.00000000       0.00000000       3.69243479
2
Properties=species:S:1:pos:R:3:forces:R:3 energy=-69.41502169826867 pbc="F F F"
Lu       0.00000000       0.00000000       0.00000000       0.00000000       0.00000000      -2.62878203
Lu       0.00000000       0.00000000       2.48383838       0.00000000       0.00000000       2.62878203
2
Properties=species:S:1:pos:R:3:forces:R:3 energy=-69.54762214615647 pbc="F F F"
Lu       0.00000000       0.00000000       0.00000000       0.00000000       0.00000000      -1.87125039
Lu       0.00000000       0.00000000       2.54343434       0.00000000       0.00000000       1.87125039
2
Properties=species:S:1:pos:R:3:forces:R:3 energy=-69.64363886006313 pbc="F F F"
Lu       0.00000000       0.00000000       0.00000000       0.00000000       0.00000000      -1.39309216
Lu       0.00000000       0.00000000       2.60303030       0.00000000       0.00000000       1.39309216
2
Properties=species:S:1:pos:R:3:forces:R:3 energy=-69.71784988057709 pbc="F F F"
Lu       0.00000000       0.00000000       0.00000000       0.00000000       0.00000000      -1.12436771
Lu       0.00000000       0.00000000       2.66262626       0.00000000       0.00000000       1.12436771
2
Properties=species:S:1:pos:R:3:forces:R:3 energy=-69.77985291157485 pbc="F F F"
Lu       0.00000000       0.00000000       0.00000000       0.00000000       0.00000000      -0.96596158
Lu       0.00000000       0.00000000       2.72222222       0.00000000       0.00000000       0.96596158
2
Properties=species:S:1:pos:R:3:forces:R:3 energy=-69.83320311944335 pbc="F F F"
Lu       0.00000000       0.00000000       0.00000000       0.00000000       0.00000000      -0.81985325
Lu       0.00000000       0.00000000       2.78181818       0.00000000       0.00000000       0.81985325
2
Properties=species:S:1:pos:R:3:forces:R:3 energy=-69.8764737424649 pbc="F F F"
Lu       0.00000000       0.00000000       0.00000000       0.00000000       0.00000000      -0.62010318
Lu       0.00000000       0.00000000       2.84141414       0.00000000       0.00000000       0.62010318
2
Properties=species:S:1:pos:R:3:forces:R:3 energy=-69.90559817555408 pbc="F F F"
Lu       0.00000000       0.00000000       0.00000000       0.00000000       0.00000000      -0.34479606
Lu       0.00000000       0.00000000       2.90101010       0.00000000       0.00000000       0.34479606
2
Properties=species:S:1:pos:R:3:forces:R:3 energy=-69.9162885817749 pbc="F F F"
Lu       0.00000000       0.00000000       0.00000000       0.00000000       0.00000000      -0.00539780
Lu       0.00000000       0.00000000       2.96060606       0.00000000       0.00000000       0.00539780
2
Properties=species:S:1:pos:R:3:forces:R:3 energy=-69.90547018208274 pbc="F F F"
Lu       0.00000000       0.00000000       0.00000000       0.00000000       0.00000000       0.37242839
Lu       0.00000000       0.00000000       3.02020202       0.00000000       0.00000000      -0.37242839
2
Properties=species:S:1:pos:R:3:forces:R:3 energy=-69.87167038295581 pbc="F F F"
Lu       0.00000000       0.00000000       0.00000000       0.00000000       0.00000000       0.76161814
Lu       0.00000000       0.00000000       3.07979798       0.00000000       0.00000000      -0.76161814
2
Properties=species:S:1:pos:R:3:forces:R:3 energy=-69.81498057240178 pbc="F F F"
Lu       0.00000000       0.00000000       0.00000000       0.00000000       0.00000000       1.13647747
Lu       0.00000000       0.00000000       3.13939394       0.00000000       0.00000000      -1.13647747
2
Properties=species:S:1:pos:R:3:forces:R:3 energy=-69.73701801416665 pbc="F F F"
Lu       0.00000000       0.00000000       0.00000000       0.00000000       0.00000000       1.47082555
Lu       0.00000000       0.00000000       3.19898990       0.00000000       0.00000000      -1.47082555
2
Properties=species:S:1:pos:R:3:forces:R:3 energy=-69.64097927567141 pbc="F F F"
Lu       0.00000000       0.00000000       0.00000000       0.00000000       0.00000000       1.73955536
Lu       0.00000000       0.00000000       3.25858586       0.00000000       0.00000000      -1.73955536
2
Properties=species:S:1:pos:R:3:forces:R:3 energy=-69.53131208168367 pbc="F F F"
Lu       0.00000000       0.00000000       0.00000000       0.00000000       0.00000000       1.92663813
Lu       0.00000000       0.00000000       3.31818182       0.00000000       0.00000000      -1.92663813
2
Properties=species:S:1:pos:R:3:forces:R:3 energy=-69.41293721111023 pbc="F F F"
Lu       0.00000000       0.00000000       0.00000000       0.00000000       0.00000000       2.03402472
Lu       0.00000000       0.00000000       3.37777778       0.00000000       0.00000000      -2.03402472
2
Properties=species:S:1:pos:R:3:forces:R:3 energy=-69.29005824175809 pbc="F F F"
Lu       0.00000000       0.00000000       0.00000000       0.00000000       0.00000000       2.08176255
Lu       0.00000000       0.00000000       3.43737374       0.00000000       0.00000000      -2.08176255
2
Properties=species:S:1:pos:R:3:forces:R:3 energy=-69.16545208158338 pbc="F F F"
Lu       0.00000000       0.00000000       0.00000000       0.00000000       0.00000000       2.09657121
Lu       0.00000000       0.00000000       3.49696970       0.00000000       0.00000000      -2.09657121
2
Properties=species:S:1:pos:R:3:forces:R:3 energy=-69.04045363387459 pbc="F F F"
Lu       0.00000000       0.00000000       0.00000000       0.00000000       0.00000000       2.09646058
Lu       0.00000000       0.00000000       3.55656566       0.00000000       0.00000000      -2.09646058
2
Properties=species:S:1:pos:R:3:forces:R:3 energy=-68.91584087829416 pbc="F F F"
Lu       0.00000000       0.00000000       0.00000000       0.00000000       0.00000000       2.08218122
Lu       0.00000000       0.00000000       3.61616162       0.00000000       0.00000000      -2.08218122
2
Properties=species:S:1:pos:R:3:forces:R:3 energy=-68.79282663831464 pbc="F F F"
Lu       0.00000000       0.00000000       0.00000000       0.00000000       0.00000000       2.03994060
Lu       0.00000000       0.00000000       3.67575758       0.00000000       0.00000000      -2.03994060
2
Properties=species:S:1:pos:R:3:forces:R:3 energy=-68.67360794039043 pbc="F F F"
Lu       0.00000000       0.00000000       0.00000000       0.00000000       0.00000000       1.95219970
Lu       0.00000000       0.00000000       3.73535354       0.00000000       0.00000000      -1.95219970
2
Properties=species:S:1:pos:R:3:forces:R:3 energy=-68.56123626039786 pbc="F F F"
Lu       0.00000000       0.00000000       0.00000000       0.00000000       0.00000000       1.80963850
Lu       0.00000000       0.00000000       3.79494949       0.00000000       0.00000000      -1.80963850
2
Properties=species:S:1:pos:R:3:forces:R:3 energy=-68.45890041598614 pbc="F F F"
Lu       0.00000000       0.00000000       0.00000000       0.00000000       0.00000000       1.61799169
Lu       0.00000000       0.00000000       3.85454545       0.00000000       0.00000000      -1.61799169
2
Properties=species:S:1:pos:R:3:forces:R:3 energy=-68.36897286375046 pbc="F F F"
Lu       0.00000000       0.00000000       0.00000000       0.00000000       0.00000000       1.39705110
Lu       0.00000000       0.00000000       3.91414141       0.00000000       0.00000000      -1.39705110
2
Properties=species:S:1:pos:R:3:forces:R:3 energy=-68.29242986207991 pbc="F F F"
Lu       0.00000000       0.00000000       0.00000000       0.00000000       0.00000000       1.17350709
Lu       0.00000000       0.00000000       3.97373737       0.00000000       0.00000000      -1.17350709
2
Properties=species:S:1:pos:R:3:forces:R:3 energy=-68.22865313065826 pbc="F F F"
Lu       0.00000000       0.00000000       0.00000000       0.00000000       0.00000000       0.97243506
Lu       0.00000000       0.00000000       4.03333333       0.00000000       0.00000000      -0.97243506
2
Properties=species:S:1:pos:R:3:forces:R:3 energy=-68.1757273794277 pbc="F F F"
Lu       0.00000000       0.00000000       0.00000000       0.00000000       0.00000000       0.81130147
Lu       0.00000000       0.00000000       4.09292929       0.00000000       0.00000000      -0.81130147
2
Properties=species:S:1:pos:R:3:forces:R:3 energy=-68.13098962499504 pbc="F F F"
Lu       0.00000000       0.00000000       0.00000000       0.00000000       0.00000000       0.69802296
Lu       0.00000000       0.00000000       4.15252525       0.00000000       0.00000000      -0.69802296
2
Properties=species:S:1:pos:R:3:forces:R:3 energy=-68.09157852604493 pbc="F F F"
Lu       0.00000000       0.00000000       0.00000000       0.00000000       0.00000000       0.63211274
Lu       0.00000000       0.00000000       4.21212121       0.00000000       0.00000000      -0.63211274
2
Properties=species:S:1:pos:R:3:forces:R:3 energy=-68.05483109284856 pbc="F F F"
Lu       0.00000000       0.00000000       0.00000000       0.00000000       0.00000000       0.60712308
Lu       0.00000000       0.00000000       4.27171717       0.00000000       0.00000000      -0.60712308
2
Properties=species:S:1:pos:R:3:forces:R:3 energy=-68.01860313450524 pbc="F F F"
Lu       0.00000000       0.00000000       0.00000000       0.00000000       0.00000000       0.61311716
Lu       0.00000000       0.00000000       4.33131313       0.00000000       0.00000000      -0.61311716
2
Properties=species:S:1:pos:R:3:forces:R:3 energy=-67.98136843948738 pbc="F F F"
Lu       0.00000000       0.00000000       0.00000000       0.00000000       0.00000000       0.63846159
Lu       0.00000000       0.00000000       4.39090909       0.00000000       0.00000000      -0.63846159
2
Properties=species:S:1:pos:R:3:forces:R:3 energy=-67.94235611424556 pbc="F F F"
Lu       0.00000000       0.00000000       0.00000000       0.00000000       0.00000000       0.67104274
Lu       0.00000000       0.00000000       4.45050505       0.00000000       0.00000000      -0.67104274
2
Properties=species:S:1:pos:R:3:forces:R:3 energy=-67.90147428292754 pbc="F F F"
Lu       0.00000000       0.00000000       0.00000000       0.00000000       0.00000000       0.69923377
Lu       0.00000000       0.00000000       4.51010101       0.00000000       0.00000000      -0.69923377
2
Properties=species:S:1:pos:R:3:forces:R:3 energy=-67.85930245639985 pbc="F F F"
Lu       0.00000000       0.00000000       0.00000000       0.00000000       0.00000000       0.71293902
Lu       0.00000000       0.00000000       4.56969697       0.00000000       0.00000000      -0.71293902
2
Properties=species:S:1:pos:R:3:forces:R:3 energy=-67.8169313308017 pbc="F F F"
Lu       0.00000000       0.00000000       0.00000000       0.00000000       0.00000000       0.70484352
Lu       0.00000000       0.00000000       4.62929293       0.00000000       0.00000000      -0.70484352
2
Properties=species:S:1:pos:R:3:forces:R:3 energy=-67.77579494244924 pbc="F F F"
Lu       0.00000000       0.00000000       0.00000000       0.00000000       0.00000000       0.67164069
Lu       0.00000000       0.00000000       4.68888889       0.00000000       0.00000000      -0.67164069
2
Properties=species:S:1:pos:R:3:forces:R:3 energy=-67.73735785790802 pbc="F F F"
Lu       0.00000000       0.00000000       0.00000000       0.00000000       0.00000000       0.61467397
Lu       0.00000000       0.00000000       4.74848485       0.00000000       0.00000000      -0.61467397
2
Properties=species:S:1:pos:R:3:forces:R:3 energy=-67.70289392313555 pbc="F F F"
Lu       0.00000000       0.00000000       0.00000000       0.00000000       0.00000000       0.53962684
Lu       0.00000000       0.00000000       4.80808081       0.00000000       0.00000000      -0.53962684
2
Properties=species:S:1:pos:R:3:forces:R:3 energy=-67.67322687990625 pbc="F F F"
Lu       0.00000000       0.00000000       0.00000000       0.00000000       0.00000000       0.45499134
Lu       0.00000000       0.00000000       4.86767677       0.00000000       0.00000000      -0.45499134
2
Properties=species:S:1:pos:R:3:forces:R:3 energy=-67.64866933223921 pbc="F F F"
Lu       0.00000000       0.00000000       0.00000000       0.00000000       0.00000000       0.36990607
Lu       0.00000000       0.00000000       4.92727273       0.00000000       0.00000000      -0.36990607
2
Properties=species:S:1:pos:R:3:forces:R:3 energy=-67.62899221298089 pbc="F F F"
Lu       0.00000000       0.00000000       0.00000000       0.00000000       0.00000000       0.29203036
Lu       0.00000000       0.00000000       4.98686869       0.00000000       0.00000000      -0.29203036
2
Properties=species:S:1:pos:R:3:forces:R:3 energy=-67.61361555985012 pbc="F F F"
Lu       0.00000000       0.00000000       0.00000000       0.00000000       0.00000000       0.22637135
Lu       0.00000000       0.00000000       5.04646465       0.00000000       0.00000000      -0.22637135
2
Properties=species:S:1:pos:R:3:forces:R:3 energy=-67.60172292151002 pbc="F F F"
Lu       0.00000000       0.00000000       0.00000000       0.00000000       0.00000000       0.17517945
Lu       0.00000000       0.00000000       5.10606061       0.00000000       0.00000000      -0.17517945
2
Properties=species:S:1:pos:R:3:forces:R:3 energy=-67.5924368637365 pbc="F F F"
Lu       0.00000000       0.00000000       0.00000000       0.00000000       0.00000000       0.13881391
Lu       0.00000000       0.00000000       5.16565657       0.00000000       0.00000000      -0.13881391
2
Properties=species:S:1:pos:R:3:forces:R:3 energy=-67.58489525861191 pbc="F F F"
Lu       0.00000000       0.00000000       0.00000000       0.00000000       0.00000000       0.11666740
Lu       0.00000000       0.00000000       5.22525253       0.00000000       0.00000000      -0.11666740
2
Properties=species:S:1:pos:R:3:forces:R:3 energy=-67.57827416954072 pbc="F F F"
Lu       0.00000000       0.00000000       0.00000000       0.00000000       0.00000000       0.10734378
Lu       0.00000000       0.00000000       5.28484848       0.00000000       0.00000000      -0.10734378
2
Properties=species:S:1:pos:R:3:forces:R:3 energy=-67.57190993898512 pbc="F F F"
Lu       0.00000000       0.00000000       0.00000000       0.00000000       0.00000000       0.10757151
Lu       0.00000000       0.00000000       5.34444444       0.00000000       0.00000000      -0.10757151
2
Properties=species:S:1:pos:R:3:forces:R:3 energy=-67.56539836109042 pbc="F F F"
Lu       0.00000000       0.00000000       0.00000000       0.00000000       0.00000000       0.11076210
Lu       0.00000000       0.00000000       5.40404040       0.00000000       0.00000000      -0.11076210
2
Properties=species:S:1:pos:R:3:forces:R:3 energy=-67.55880068008912 pbc="F F F"
Lu       0.00000000       0.00000000       0.00000000       0.00000000       0.00000000       0.10934238
Lu       0.00000000       0.00000000       5.46363636       0.00000000       0.00000000      -0.10934238
2
Properties=species:S:1:pos:R:3:forces:R:3 energy=-67.55242997834145 pbc="F F F"
Lu       0.00000000       0.00000000       0.00000000       0.00000000       0.00000000       0.10480385
Lu       0.00000000       0.00000000       5.52323232       0.00000000       0.00000000      -0.10480385
2
Properties=species:S:1:pos:R:3:forces:R:3 energy=-67.54627132967967 pbc="F F F"
Lu       0.00000000       0.00000000       0.00000000       0.00000000       0.00000000       0.10176504
Lu       0.00000000       0.00000000       5.58282828       0.00000000       0.00000000      -0.10176504
2
Properties=species:S:1:pos:R:3:forces:R:3 energy=-67.54043193526932 pbc="F F F"
Lu       0.00000000       0.00000000       0.00000000       0.00000000       0.00000000       0.09263561
Lu       0.00000000       0.00000000       5.64242424       0.00000000       0.00000000      -0.09263561
2
Properties=species:S:1:pos:R:3:forces:R:3 energy=-67.53534713310076 pbc="F F F"
Lu       0.00000000       0.00000000       0.00000000       0.00000000       0.00000000       0.07780462
Lu       0.00000000       0.00000000       5.70202020       0.00000000       0.00000000      -0.07780462
2
Properties=species:S:1:pos:R:3:forces:R:3 energy=-67.53098691878301 pbc="F F F"
Lu       0.00000000       0.00000000       0.00000000       0.00000000       0.00000000       0.07143697
Lu       0.00000000       0.00000000       5.76161616       0.00000000       0.00000000      -0.07143697
2
Properties=species:S:1:pos:R:3:forces:R:3 energy=-67.5266346899347 pbc="F F F"
Lu       0.00000000       0.00000000       0.00000000       0.00000000       0.00000000       0.07363667
Lu       0.00000000       0.00000000       5.82121212       0.00000000       0.00000000      -0.07363667
2
Properties=species:S:1:pos:R:3:forces:R:3 energy=-67.52266492045223 pbc="F F F"
Lu       0.00000000       0.00000000       0.00000000       0.00000000       0.00000000       0.05518802
Lu       0.00000000       0.00000000       5.88080808       0.00000000       0.00000000      -0.05518802
2
Properties=species:S:1:pos:R:3:forces:R:3 energy=-67.52036763533452 pbc="F F F"
Lu       0.00000000       0.00000000       0.00000000       0.00000000       0.00000000       0.02147660
Lu       0.00000000       0.00000000       5.94040404       0.00000000       0.00000000      -0.02147660
2
Properties=species:S:1:pos:R:3:forces:R:3 energy=-67.51970540512063 pbc="F F F"
Lu       0.00000000       0.00000000       0.00000000       0.00000000       0.00000000       0.00590325
Lu       0.00000000       0.00000000       6.00000000       0.00000000       0.00000000      -0.00590325
