2
Properties=species:S:1:pos:R:3:forces:R:3 energy=12876.033107417948 pbc="F F F"
Mg       0.00000000       0.00000000       0.00000000       0.00000000       0.00000000  -20319.58007812
Mg       0.00000000       0.00000000       0.18000000       0.00000000       0.00000000   20319.58007812
2
Properties=species:S:1:pos:R:3:forces:R:3 energy=11781.998927730448 pbc="F F F"
Mg       0.00000000       0.00000000       0.00000000       0.00000000       0.00000000  -19497.22265625
Mg       0.00000000       0.00000000       0.23878788       0.00000000       0.00000000   19497.22265625
2
Properties=species:S:1:pos:R:3:forces:R:3 energy=10371.681544917948 pbc="F F F"
Mg       0.00000000       0.00000000       0.00000000       0.00000000       0.00000000  -29695.50000000
Mg       0.00000000       0.00000000       0.29757576       0.00000000       0.00000000   29695.50000000
2
Properties=species:S:1:pos:R:3:forces:R:3 energy=8220.123927732033 pbc="F F F"
Mg       0.00000000       0.00000000       0.00000000       0.00000000       0.00000000  -43354.19921875
Mg       0.00000000       0.00000000       0.35636364       0.00000000       0.00000000   43354.19921875
2
Properties=species:S:1:pos:R:3:forces:R:3 energy=5399.291408202366 pbc="F F F"
Mg       0.00000000       0.00000000       0.00000000       0.00000000       0.00000000  -50608.74609375
Mg       0.00000000       0.00000000       0.41515152       0.00000000       0.00000000   50608.74609375
2
Properties=species:S:1:pos:R:3:forces:R:3 energy=2584.4984394523667 pbc="F F F"
Mg       0.00000000       0.00000000       0.00000000       0.00000000       0.00000000  -42253.93359375
Mg       0.00000000       0.00000000       0.47393939       0.00000000       0.00000000   42253.93359375
2
Properties=species:S:1:pos:R:3:forces:R:3 energy=824.7268330118058 pbc="F F F"
Mg       0.00000000       0.00000000       0.00000000       0.00000000       0.00000000  -17982.60546875
Mg       0.00000000       0.00000000       0.53272727       0.00000000       0.00000000   17982.60546875
2
Properties=species:S:1:pos:R:3:forces:R:3 energy=165.6110188107409 pbc="F F F"
Mg       0.00000000       0.00000000       0.00000000       0.00000000       0.00000000   -5453.89306641
Mg       0.00000000       0.00000000       0.59151515       0.00000000       0.00000000    5453.89306641
2
Properties=species:S:1:pos:R:3:forces:R:3 energy=24.521115944020657 pbc="F F F"
Mg       0.00000000       0.00000000       0.00000000       0.00000000       0.00000000    -677.64477539
Mg       0.00000000       0.00000000       0.65030303       0.00000000       0.00000000     677.64477539
2
Properties=species:S:1:pos:R:3:forces:R:3 energy=21.087863626848954 pbc="F F F"
Mg       0.00000000       0.00000000       0.00000000       0.00000000       0.00000000     -33.45853424
Mg       0.00000000       0.00000000       0.70909091       0.00000000       0.00000000      33.45853424
2
Properties=species:S:1:pos:R:3:forces:R:3 energy=19.941243857022513 pbc="F F F"
Mg       0.00000000       0.00000000       0.00000000       0.00000000       0.00000000      12.26603317
Mg       0.00000000       0.00000000       0.76787879       0.00000000       0.00000000     -12.26603317
2
Properties=species:S:1:pos:R:3:forces:R:3 energy=20.51230979774634 pbc="F F F"
Mg       0.00000000       0.00000000       0.00000000       0.00000000       0.00000000       5.63576746
Mg       0.00000000       0.00000000       0.82666667       0.00000000       0.00000000      -5.63576746
2
Properties=species:S:1:pos:R:3:forces:R:3 energy=20.38929159158054 pbc="F F F"
Mg       0.00000000       0.00000000       0.00000000       0.00000000       0.00000000     -11.94190979
Mg       0.00000000       0.00000000       0.88545455       0.00000000       0.00000000      11.94190979
2
Properties=species:S:1:pos:R:3:forces:R:3 energy=19.170881177248823 pbc="F F F"
Mg       0.00000000       0.00000000       0.00000000       0.00000000       0.00000000     -27.70622635
Mg       0.00000000       0.00000000       0.94424242       0.00000000       0.00000000      27.70622635
2
Properties=species:S:1:pos:R:3:forces:R:3 energy=17.279771819985953 pbc="F F F"
Mg       0.00000000       0.00000000       0.00000000       0.00000000       0.00000000     -35.86417007
Mg       0.00000000       0.00000000       1.00303030       0.00000000       0.00000000      35.86417007
2
Properties=species:S:1:pos:R:3:forces:R:3 energy=15.042123953867955 pbc="F F F"
Mg       0.00000000       0.00000000       0.00000000       0.00000000       0.00000000     -39.50214005
Mg       0.00000000       0.00000000       1.06181818       0.00000000       0.00000000      39.50214005
2
Properties=species:S:1:pos:R:3:forces:R:3 energy=12.72246586610225 pbc="F F F"
Mg       0.00000000       0.00000000       0.00000000       0.00000000       0.00000000     -38.66151047
Mg       0.00000000       0.00000000       1.12060606       0.00000000       0.00000000      38.66151047
2
Properties=species:S:1:pos:R:3:forces:R:3 energy=10.583195335473407 pbc="F F F"
Mg       0.00000000       0.00000000       0.00000000       0.00000000       0.00000000     -33.53755569
Mg       0.00000000       0.00000000       1.17939394       0.00000000       0.00000000      33.53755569
2
Properties=species:S:1:pos:R:3:forces:R:3 energy=8.790404293598028 pbc="F F F"
Mg       0.00000000       0.00000000       0.00000000       0.00000000       0.00000000     -27.95980644
Mg       0.00000000       0.00000000       1.23818182       0.00000000       0.00000000      27.95980644
2
Properties=species:S:1:pos:R:3:forces:R:3 energy=7.19949617645673 pbc="F F F"
Mg       0.00000000       0.00000000       0.00000000       0.00000000       0.00000000     -26.85940552
Mg       0.00000000       0.00000000       1.29696970       0.00000000       0.00000000      26.85940552
2
Properties=species:S:1:pos:R:3:forces:R:3 energy=5.623736805116427 pbc="F F F"
Mg       0.00000000       0.00000000       0.00000000       0.00000000       0.00000000     -26.21465492
Mg       0.00000000       0.00000000       1.35575758       0.00000000       0.00000000      26.21465492
2
Properties=species:S:1:pos:R:3:forces:R:3 energy=4.195325967587497 pbc="F F F"
Mg       0.00000000       0.00000000       0.00000000       0.00000000       0.00000000     -21.93465424
Mg       0.00000000       0.00000000       1.41454545       0.00000000       0.00000000      21.93465424
2
Properties=species:S:1:pos:R:3:forces:R:3 energy=3.052233179910661 pbc="F F F"
Mg       0.00000000       0.00000000       0.00000000       0.00000000       0.00000000     -17.18401337
Mg       0.00000000       0.00000000       1.47333333       0.00000000       0.00000000      17.18401337
2
Properties=species:S:1:pos:R:3:forces:R:3 energy=2.1360154011383097 pbc="F F F"
Mg       0.00000000       0.00000000       0.00000000       0.00000000       0.00000000     -14.31750202
Mg       0.00000000       0.00000000       1.53212121       0.00000000       0.00000000      14.31750202
2
Properties=species:S:1:pos:R:3:forces:R:3 energy=1.3392383917664639 pbc="F F F"
Mg       0.00000000       0.00000000       0.00000000       0.00000000       0.00000000     -12.94903564
Mg       0.00000000       0.00000000       1.59090909       0.00000000       0.00000000      12.94903564
2
Properties=species:S:1:pos:R:3:forces:R:3 energy=0.6035516220079387 pbc="F F F"
Mg       0.00000000       0.00000000       0.00000000       0.00000000       0.00000000     -12.11071587
Mg       0.00000000       0.00000000       1.64969697       0.00000000       0.00000000      12.11071587
2
Properties=species:S:1:pos:R:3:forces:R:3 energy=-0.08536857835084136 pbc="F F F"
Mg       0.00000000       0.00000000       0.00000000       0.00000000       0.00000000     -11.31982327
Mg       0.00000000       0.00000000       1.70848485       0.00000000       0.00000000      11.31982327
2
Properties=species:S:1:pos:R:3:forces:R:3 energy=-0.7262790489050195 pbc="F F F"
Mg       0.00000000       0.00000000       0.00000000       0.00000000       0.00000000     -10.47539425
Mg       0.00000000       0.00000000       1.76727273       0.00000000       0.00000000      10.47539425
2
Properties=species:S:1:pos:R:3:forces:R:3 energy=-1.3161778122238847 pbc="F F F"
Mg       0.00000000       0.00000000       0.00000000       0.00000000       0.00000000      -9.58795834
Mg       0.00000000       0.00000000       1.82606061       0.00000000       0.00000000       9.58795834
2
Properties=species:S:1:pos:R:3:forces:R:3 energy=-1.8532282745557302 pbc="F F F"
Mg       0.00000000       0.00000000       0.00000000       0.00000000       0.00000000      -8.68196583
Mg       0.00000000       0.00000000       1.88484848       0.00000000       0.00000000       8.68196583
2
Properties=species:S:1:pos:R:3:forces:R:3 energy=-2.3370677505565878 pbc="F F F"
Mg       0.00000000       0.00000000       0.00000000       0.00000000       0.00000000      -7.78092957
Mg       0.00000000       0.00000000       1.94363636       0.00000000       0.00000000       7.78092957
2
Properties=species:S:1:pos:R:3:forces:R:3 energy=-2.7684159609764114 pbc="F F F"
Mg       0.00000000       0.00000000       0.00000000       0.00000000       0.00000000      -6.89655876
Mg       0.00000000       0.00000000       2.00242424       0.00000000       0.00000000       6.89655876
2
Properties=species:S:1:pos:R:3:forces:R:3 energy=-3.148170027411028 pbc="F F F"
Mg       0.00000000       0.00000000       0.00000000       0.00000000       0.00000000      -6.02376032
Mg       0.00000000       0.00000000       2.06121212       0.00000000       0.00000000       6.02376032
2
Properties=species:S:1:pos:R:3:forces:R:3 energy=-3.4766672725520893 pbc="F F F"
Mg       0.00000000       0.00000000       0.00000000       0.00000000       0.00000000      -5.15166187
Mg       0.00000000       0.00000000       2.12000000       0.00000000       0.00000000       5.15166187
2
Properties=species:S:1:pos:R:3:forces:R:3 energy=-3.7539548811035024 pbc="F F F"
Mg       0.00000000       0.00000000       0.00000000       0.00000000       0.00000000      -4.28450298
Mg       0.00000000       0.00000000       2.17878788       0.00000000       0.00000000       4.28450298
2
Properties=species:S:1:pos:R:3:forces:R:3 energy=-3.9811665635032054 pbc="F F F"
Mg       0.00000000       0.00000000       0.00000000       0.00000000       0.00000000      -3.45620489
Mg       0.00000000       0.00000000       2.23757576       0.00000000       0.00000000       3.45620489
2
Properties=species:S:1:pos:R:3:forces:R:3 energy=-4.162216769433642 pbc="F F F"
Mg       0.00000000       0.00000000       0.00000000       0.00000000       0.00000000      -2.72467875
Mg       0.00000000       0.00000000       2.29636364       0.00000000       0.00000000       2.72467875
2
Properties=species:S:1:pos:R:3:forces:R:3 energy=-4.3045786999144315 pbc="F F F"
Mg       0.00000000       0.00000000       0.00000000       0.00000000       0.00000000      -2.14821982
Mg       0.00000000       0.00000000       2.35515152       0.00000000       0.00000000       2.14821982
2
Properties=species:S:1:pos:R:3:forces:R:3 energy=-4.418478727353547 pbc="F F F"
Mg       0.00000000       0.00000000       0.00000000       0.00000000       0.00000000      -1.75819564
Mg       0.00000000       0.00000000       2.41393939       0.00000000       0.00000000       1.75819564
2
Properties=species:S:1:pos:R:3:forces:R:3 energy=-4.514769293092735 pbc="F F F"
Mg       0.00000000       0.00000000       0.00000000       0.00000000       0.00000000      -1.54391003
Mg       0.00000000       0.00000000       2.47272727       0.00000000       0.00000000       1.54391003
2
Properties=species:S:1:pos:R:3:forces:R:3 energy=-4.602518333181967 pbc="F F F"
Mg       0.00000000       0.00000000       0.00000000       0.00000000       0.00000000      -1.45728076
Mg       0.00000000       0.00000000       2.53151515       0.00000000       0.00000000       1.45728076
2
Properties=species:S:1:pos:R:3:forces:R:3 energy=-4.687317994000077 pbc="F F F"
Mg       0.00000000       0.00000000       0.00000000       0.00000000       0.00000000      -1.43241906
Mg       0.00000000       0.00000000       2.59030303       0.00000000       0.00000000       1.43241906
2
Properties=species:S:1:pos:R:3:forces:R:3 energy=-4.770923755225031 pbc="F F F"
Mg       0.00000000       0.00000000       0.00000000       0.00000000       0.00000000      -1.40764689
Mg       0.00000000       0.00000000       2.64909091       0.00000000       0.00000000       1.40764689
2
Properties=species:S:1:pos:R:3:forces:R:3 energy=-4.85197772369474 pbc="F F F"
Mg       0.00000000       0.00000000       0.00000000       0.00000000       0.00000000      -1.34057188
Mg       0.00000000       0.00000000       2.70787879       0.00000000       0.00000000       1.34057188
2
Properties=species:S:1:pos:R:3:forces:R:3 energy=-4.927358648100959 pbc="F F F"
Mg       0.00000000       0.00000000       0.00000000       0.00000000       0.00000000      -1.21388030
Mg       0.00000000       0.00000000       2.76666667       0.00000000       0.00000000       1.21388030
2
Properties=species:S:1:pos:R:3:forces:R:3 energy=-4.993630502758567 pbc="F F F"
Mg       0.00000000       0.00000000       0.00000000       0.00000000       0.00000000      -1.03309190
Mg       0.00000000       0.00000000       2.82545455       0.00000000       0.00000000       1.03309190
2
Properties=species:S:1:pos:R:3:forces:R:3 energy=-5.048159701148211 pbc="F F F"
Mg       0.00000000       0.00000000       0.00000000       0.00000000       0.00000000      -0.81847435
Mg       0.00000000       0.00000000       2.88424242       0.00000000       0.00000000       0.81847435
2
Properties=species:S:1:pos:R:3:forces:R:3 energy=-5.0896957613740605 pbc="F F F"
Mg       0.00000000       0.00000000       0.00000000       0.00000000       0.00000000      -0.59522361
Mg       0.00000000       0.00000000       2.94303030       0.00000000       0.00000000       0.59522361
2
Properties=species:S:1:pos:R:3:forces:R:3 energy=-5.118429308675249 pbc="F F F"
Mg       0.00000000       0.00000000       0.00000000       0.00000000       0.00000000      -0.38634747
Mg       0.00000000       0.00000000       3.00181818       0.00000000       0.00000000       0.38634747
2
Properties=species:S:1:pos:R:3:forces:R:3 energy=-5.1357544305800245 pbc="F F F"
Mg       0.00000000       0.00000000       0.00000000       0.00000000       0.00000000      -0.20959009
Mg       0.00000000       0.00000000       3.06060606       0.00000000       0.00000000       0.20959009
2
Properties=species:S:1:pos:R:3:forces:R:3 energy=-5.143930301970352 pbc="F F F"
Mg       0.00000000       0.00000000       0.00000000       0.00000000       0.00000000      -0.07640324
Mg       0.00000000       0.00000000       3.11939394       0.00000000       0.00000000       0.07640324
2
Properties=species:S:1:pos:R:3:forces:R:3 energy=-5.145682591663545 pbc="F F F"
Mg       0.00000000       0.00000000       0.00000000       0.00000000       0.00000000       0.00882233
Mg       0.00000000       0.00000000       3.17818182       0.00000000       0.00000000      -0.00882233
2
Properties=species:S:1:pos:R:3:forces:R:3 energy=-5.143775340125171 pbc="F F F"
Mg       0.00000000       0.00000000       0.00000000       0.00000000       0.00000000       0.04925171
Mg       0.00000000       0.00000000       3.23696970       0.00000000       0.00000000      -0.04925171
2
Properties=species:S:1:pos:R:3:forces:R:3 energy=-5.140577982778052 pbc="F F F"
Mg       0.00000000       0.00000000       0.00000000       0.00000000       0.00000000       0.05478003
Mg       0.00000000       0.00000000       3.29575758       0.00000000       0.00000000      -0.05478003
2
Properties=species:S:1:pos:R:3:forces:R:3 energy=-5.1377527333194974 pbc="F F F"
Mg       0.00000000       0.00000000       0.00000000       0.00000000       0.00000000       0.03891198
Mg       0.00000000       0.00000000       3.35454545       0.00000000       0.00000000      -0.03891198
2
Properties=species:S:1:pos:R:3:forces:R:3 energy=-5.136174224856939 pbc="F F F"
Mg       0.00000000       0.00000000       0.00000000       0.00000000       0.00000000       0.01418411
Mg       0.00000000       0.00000000       3.41333333       0.00000000       0.00000000      -0.01418411
2
Properties=species:S:1:pos:R:3:forces:R:3 energy=-5.136078926153987 pbc="F F F"
Mg       0.00000000       0.00000000       0.00000000       0.00000000       0.00000000      -0.01031636
Mg       0.00000000       0.00000000       3.47212121       0.00000000       0.00000000       0.01031636
2
Properties=species:S:1:pos:R:3:forces:R:3 energy=-5.137259657666877 pbc="F F F"
Mg       0.00000000       0.00000000       0.00000000       0.00000000       0.00000000      -0.02839048
Mg       0.00000000       0.00000000       3.53090909       0.00000000       0.00000000       0.02839048
2
Properties=species:S:1:pos:R:3:forces:R:3 energy=-5.139210817765303 pbc="F F F"
Mg       0.00000000       0.00000000       0.00000000       0.00000000       0.00000000      -0.03602128
Mg       0.00000000       0.00000000       3.58969697       0.00000000       0.00000000       0.03602128
2
Properties=species:S:1:pos:R:3:forces:R:3 energy=-5.141254647249039 pbc="F F F"
Mg       0.00000000       0.00000000       0.00000000       0.00000000       0.00000000      -0.03145055
Mg       0.00000000       0.00000000       3.64848485       0.00000000       0.00000000       0.03145055
2
Properties=species:S:1:pos:R:3:forces:R:3 energy=-5.142677203929597 pbc="F F F"
Mg       0.00000000       0.00000000       0.00000000       0.00000000       0.00000000      -0.01513712
Mg       0.00000000       0.00000000       3.70727273       0.00000000       0.00000000       0.01513712
2
Properties=species:S:1:pos:R:3:forces:R:3 energy=-5.142845421687864 pbc="F F F"
Mg       0.00000000       0.00000000       0.00000000       0.00000000       0.00000000       0.01076784
Mg       0.00000000       0.00000000       3.76606061       0.00000000       0.00000000      -0.01076784
2
Properties=species:S:1:pos:R:3:forces:R:3 energy=-5.1412827798789005 pbc="F F F"
Mg       0.00000000       0.00000000       0.00000000       0.00000000       0.00000000       0.04322100
Mg       0.00000000       0.00000000       3.82484848       0.00000000       0.00000000      -0.04322100
2
Properties=species:S:1:pos:R:3:forces:R:3 energy=-5.137698106239112 pbc="F F F"
Mg       0.00000000       0.00000000       0.00000000       0.00000000       0.00000000       0.07902415
Mg       0.00000000       0.00000000       3.88363636       0.00000000       0.00000000      -0.07902415
2
Properties=species:S:1:pos:R:3:forces:R:3 energy=-5.131982222707479 pbc="F F F"
Mg       0.00000000       0.00000000       0.00000000       0.00000000       0.00000000       0.11531366
Mg       0.00000000       0.00000000       3.94242424       0.00000000       0.00000000      -0.11531366
2
Properties=species:S:1:pos:R:3:forces:R:3 energy=-5.12417646434995 pbc="F F F"
Mg       0.00000000       0.00000000       0.00000000       0.00000000       0.00000000       0.14977714
Mg       0.00000000       0.00000000       4.00121212       0.00000000       0.00000000      -0.14977714
2
Properties=species:S:1:pos:R:3:forces:R:3 energy=-5.114442845950975 pbc="F F F"
Mg       0.00000000       0.00000000       0.00000000       0.00000000       0.00000000       0.18065605
Mg       0.00000000       0.00000000       4.06000000       0.00000000       0.00000000      -0.18065605
2
Properties=species:S:1:pos:R:3:forces:R:3 energy=-5.103031892016507 pbc="F F F"
Mg       0.00000000       0.00000000       0.00000000       0.00000000       0.00000000       0.20665145
Mg       0.00000000       0.00000000       4.11878788       0.00000000       0.00000000      -0.20665145
2
Properties=species:S:1:pos:R:3:forces:R:3 energy=-5.0902601714946645 pbc="F F F"
Mg       0.00000000       0.00000000       0.00000000       0.00000000       0.00000000       0.22681604
Mg       0.00000000       0.00000000       4.17757576       0.00000000       0.00000000      -0.22681604
2
Properties=species:S:1:pos:R:3:forces:R:3 energy=-5.076491045227524 pbc="F F F"
Mg       0.00000000       0.00000000       0.00000000       0.00000000       0.00000000       0.24049115
Mg       0.00000000       0.00000000       4.23636364       0.00000000       0.00000000      -0.24049115
2
Properties=species:S:1:pos:R:3:forces:R:3 energy=-5.062118610294943 pbc="F F F"
Mg       0.00000000       0.00000000       0.00000000       0.00000000       0.00000000       0.24729510
Mg       0.00000000       0.00000000       4.29515152       0.00000000       0.00000000      -0.24729510
2
Properties=species:S:1:pos:R:3:forces:R:3 energy=-5.047551617431886 pbc="F F F"
Mg       0.00000000       0.00000000       0.00000000       0.00000000       0.00000000       0.24715747
Mg       0.00000000       0.00000000       4.35393939       0.00000000       0.00000000      -0.24715747
2
Properties=species:S:1:pos:R:3:forces:R:3 energy=-5.033189687775224 pbc="F F F"
Mg       0.00000000       0.00000000       0.00000000       0.00000000       0.00000000       0.24036728
Mg       0.00000000       0.00000000       4.41272727       0.00000000       0.00000000      -0.24036728
2
Properties=species:S:1:pos:R:3:forces:R:3 energy=-5.019407173260262 pbc="F F F"
Mg       0.00000000       0.00000000       0.00000000       0.00000000       0.00000000       0.22761239
Mg       0.00000000       0.00000000       4.47151515       0.00000000       0.00000000      -0.22761239
2
Properties=species:S:1:pos:R:3:forces:R:3 energy=-5.006524088561032 pbc="F F F"
Mg       0.00000000       0.00000000       0.00000000       0.00000000       0.00000000       0.20997186
Mg       0.00000000       0.00000000       4.53030303       0.00000000       0.00000000      -0.20997186
2
Properties=species:S:1:pos:R:3:forces:R:3 energy=-4.994788027708223 pbc="F F F"
Mg       0.00000000       0.00000000       0.00000000       0.00000000       0.00000000       0.18884437
Mg       0.00000000       0.00000000       4.58909091       0.00000000       0.00000000      -0.18884437
2
Properties=species:S:1:pos:R:3:forces:R:3 energy=-4.984357946874077 pbc="F F F"
Mg       0.00000000       0.00000000       0.00000000       0.00000000       0.00000000       0.16580574
Mg       0.00000000       0.00000000       4.64787879       0.00000000       0.00000000      -0.16580574
2
Properties=species:S:1:pos:R:3:forces:R:3 energy=-4.975299925107028 pbc="F F F"
Mg       0.00000000       0.00000000       0.00000000       0.00000000       0.00000000       0.14240974
Mg       0.00000000       0.00000000       4.70666667       0.00000000       0.00000000      -0.14240974
2
Properties=species:S:1:pos:R:3:forces:R:3 energy=-4.967594286794764 pbc="F F F"
Mg       0.00000000       0.00000000       0.00000000       0.00000000       0.00000000       0.11999835
Mg       0.00000000       0.00000000       4.76545455       0.00000000       0.00000000      -0.11999835
2
Properties=species:S:1:pos:R:3:forces:R:3 energy=-4.961152775721481 pbc="F F F"
Mg       0.00000000       0.00000000       0.00000000       0.00000000       0.00000000       0.09954041
Mg       0.00000000       0.00000000       4.82424242       0.00000000       0.00000000      -0.09954041
2
Properties=species:S:1:pos:R:3:forces:R:3 energy=-4.95584193434383 pbc="F F F"
Mg       0.00000000       0.00000000       0.00000000       0.00000000       0.00000000       0.08158739
Mg       0.00000000       0.00000000       4.88303030       0.00000000       0.00000000      -0.08158739
2
Properties=species:S:1:pos:R:3:forces:R:3 energy=-4.951507395559501 pbc="F F F"
Mg       0.00000000       0.00000000       0.00000000       0.00000000       0.00000000       0.06629723
Mg       0.00000000       0.00000000       4.94181818       0.00000000       0.00000000      -0.06629723
2
Properties=species:S:1:pos:R:3:forces:R:3 energy=-4.947996295637567 pbc="F F F"
Mg       0.00000000       0.00000000       0.00000000       0.00000000       0.00000000       0.05355991
Mg       0.00000000       0.00000000       5.00060606       0.00000000       0.00000000      -0.05355991
2
Properties=species:S:1:pos:R:3:forces:R:3 energy=-4.9451649036130165 pbc="F F F"
Mg       0.00000000       0.00000000       0.00000000       0.00000000       0.00000000       0.04312750
Mg       0.00000000       0.00000000       5.05939394       0.00000000       0.00000000      -0.04312750
2
Properties=species:S:1:pos:R:3:forces:R:3 energy=-4.942885265328747 pbc="F F F"
Mg       0.00000000       0.00000000       0.00000000       0.00000000       0.00000000       0.03477097
Mg       0.00000000       0.00000000       5.11818182       0.00000000       0.00000000      -0.03477097
2
Properties=species:S:1:pos:R:3:forces:R:3 energy=-4.94103757087321 pbc="F F F"
Mg       0.00000000       0.00000000       0.00000000       0.00000000       0.00000000       0.02843323
Mg       0.00000000       0.00000000       5.17696970       0.00000000       0.00000000      -0.02843323
2
Properties=species:S:1:pos:R:3:forces:R:3 energy=-4.939498211476704 pbc="F F F"
Mg       0.00000000       0.00000000       0.00000000       0.00000000       0.00000000       0.02434134
Mg       0.00000000       0.00000000       5.23575758       0.00000000       0.00000000      -0.02434134
2
Properties=species:S:1:pos:R:3:forces:R:3 energy=-4.938123087043012 pbc="F F F"
Mg       0.00000000       0.00000000       0.00000000       0.00000000       0.00000000       0.02290993
Mg       0.00000000       0.00000000       5.29454545       0.00000000       0.00000000      -0.02290993
2
Properties=species:S:1:pos:R:3:forces:R:3 energy=-4.93675424781553 pbc="F F F"
Mg       0.00000000       0.00000000       0.00000000       0.00000000       0.00000000       0.02397941
Mg       0.00000000       0.00000000       5.35333333       0.00000000       0.00000000      -0.02397941
2
Properties=species:S:1:pos:R:3:forces:R:3 energy=-4.935300006979624 pbc="F F F"
Mg       0.00000000       0.00000000       0.00000000       0.00000000       0.00000000       0.02513359
Mg       0.00000000       0.00000000       5.41212121       0.00000000       0.00000000      -0.02513359
2
Properties=species:S:1:pos:R:3:forces:R:3 energy=-4.933886537657023 pbc="F F F"
Mg       0.00000000       0.00000000       0.00000000       0.00000000       0.00000000       0.02202194
Mg       0.00000000       0.00000000       5.47090909       0.00000000       0.00000000      -0.02202194
2
Properties=species:S:1:pos:R:3:forces:R:3 energy=-4.932772532517752 pbc="F F F"
Mg       0.00000000       0.00000000       0.00000000       0.00000000       0.00000000       0.01607912
Mg       0.00000000       0.00000000       5.52969697       0.00000000       0.00000000      -0.01607912
2
Properties=species:S:1:pos:R:3:forces:R:3 energy=-4.931903309560096 pbc="F F F"
Mg       0.00000000       0.00000000       0.00000000       0.00000000       0.00000000       0.01441660
Mg       0.00000000       0.00000000       5.58848485       0.00000000       0.00000000      -0.01441660
2
Properties=species:S:1:pos:R:3:forces:R:3 energy=-4.931023877162032 pbc="F F F"
Mg       0.00000000       0.00000000       0.00000000       0.00000000       0.00000000       0.01534244
Mg       0.00000000       0.00000000       5.64727273       0.00000000       0.00000000      -0.01534244
2
Properties=species:S:1:pos:R:3:forces:R:3 energy=-4.930183338303626 pbc="F F F"
Mg       0.00000000       0.00000000       0.00000000       0.00000000       0.00000000       0.01221340
Mg       0.00000000       0.00000000       5.70606061       0.00000000       0.00000000      -0.01221340
2
Properties=species:S:1:pos:R:3:forces:R:3 energy=-4.929682017871323 pbc="F F F"
Mg       0.00000000       0.00000000       0.00000000       0.00000000       0.00000000       0.00472139
Mg       0.00000000       0.00000000       5.76484848       0.00000000       0.00000000      -0.00472139
2
Properties=species:S:1:pos:R:3:forces:R:3 energy=-4.929537868414664 pbc="F F F"
Mg       0.00000000       0.00000000       0.00000000       0.00000000       0.00000000       0.00138866
Mg       0.00000000       0.00000000       5.82363636       0.00000000       0.00000000      -0.00138866
2
Properties=species:S:1:pos:R:3:forces:R:3 energy=-4.9294082340063055 pbc="F F F"
Mg       0.00000000       0.00000000       0.00000000       0.00000000       0.00000000       0.00340109
Mg       0.00000000       0.00000000       5.88242424       0.00000000       0.00000000      -0.00340109
2
Properties=species:S:1:pos:R:3:forces:R:3 energy=-4.929139195950621 pbc="F F F"
Mg       0.00000000       0.00000000       0.00000000       0.00000000       0.00000000       0.00555996
Mg       0.00000000       0.00000000       5.94121212       0.00000000       0.00000000      -0.00555996
2
Properties=species:S:1:pos:R:3:forces:R:3 energy=-4.928785601528256 pbc="F F F"
Mg       0.00000000       0.00000000       0.00000000       0.00000000       0.00000000       0.00619223
Mg       0.00000000       0.00000000       6.00000000       0.00000000       0.00000000      -0.00619223
