2
Properties=species:S:1:pos:R:3:forces:R:3 energy=12876.109279292948 pbc="F F F"
Mg       0.00000000       0.00000000       0.00000000       0.00000000       0.00000000  -20319.61132812
Mg       0.00000000       0.00000000       0.18000000       0.00000000       0.00000000   20319.61132812
2
Properties=species:S:1:pos:R:3:forces:R:3 energy=11782.072169917948 pbc="F F F"
Mg       0.00000000       0.00000000       0.00000000       0.00000000       0.00000000  -19497.43945312
Mg       0.00000000       0.00000000       0.23878788       0.00000000       0.00000000   19497.43945312
2
Properties=species:S:1:pos:R:3:forces:R:3 energy=10371.659083980448 pbc="F F F"
Mg       0.00000000       0.00000000       0.00000000       0.00000000       0.00000000  -29695.47656250
Mg       0.00000000       0.00000000       0.29757576       0.00000000       0.00000000   29695.47656250
2
Properties=species:S:1:pos:R:3:forces:R:3 energy=8220.154201169533 pbc="F F F"
Mg       0.00000000       0.00000000       0.00000000       0.00000000       0.00000000  -43354.35156250
Mg       0.00000000       0.00000000       0.35636364       0.00000000       0.00000000   43354.35156250
2
Properties=species:S:1:pos:R:3:forces:R:3 energy=5399.282130858616 pbc="F F F"
Mg       0.00000000       0.00000000       0.00000000       0.00000000       0.00000000  -50608.68359375
Mg       0.00000000       0.00000000       0.41515152       0.00000000       0.00000000   50608.68359375
2
Properties=species:S:1:pos:R:3:forces:R:3 energy=2584.4701191398667 pbc="F F F"
Mg       0.00000000       0.00000000       0.00000000       0.00000000       0.00000000  -42253.61328125
Mg       0.00000000       0.00000000       0.47393939       0.00000000       0.00000000   42253.61328125
2
Properties=species:S:1:pos:R:3:forces:R:3 energy=824.7278095743058 pbc="F F F"
Mg       0.00000000       0.00000000       0.00000000       0.00000000       0.00000000  -17982.62109375
Mg       0.00000000       0.00000000       0.53272727       0.00000000       0.00000000   17982.62109375
2
Properties=species:S:1:pos:R:3:forces:R:3 energy=165.6118733029284 pbc="F F F"
Mg       0.00000000       0.00000000       0.00000000       0.00000000       0.00000000   -5453.91943359
Mg       0.00000000       0.00000000       0.59151515       0.00000000       0.00000000    5453.91943359
2
Properties=species:S:1:pos:R:3:forces:R:3 energy=24.52115790569058 pbc="F F F"
Mg       0.00000000       0.00000000       0.00000000       0.00000000       0.00000000    -677.64392090
Mg       0.00000000       0.00000000       0.65030303       0.00000000       0.00000000     677.64392090
2
Properties=species:S:1:pos:R:3:forces:R:3 energy=21.08785409010579 pbc="F F F"
Mg       0.00000000       0.00000000       0.00000000       0.00000000       0.00000000     -33.45816040
Mg       0.00000000       0.00000000       0.70909091       0.00000000       0.00000000      33.45816040
2
Properties=species:S:1:pos:R:3:forces:R:3 energy=19.941224783536185 pbc="F F F"
Mg       0.00000000       0.00000000       0.00000000       0.00000000       0.00000000      12.26603699
Mg       0.00000000       0.00000000       0.76787879       0.00000000       0.00000000     -12.26603699
2
Properties=species:S:1:pos:R:3:forces:R:3 energy=20.512321241838137 pbc="F F F"
Mg       0.00000000       0.00000000       0.00000000       0.00000000       0.00000000       5.63578892
Mg       0.00000000       0.00000000       0.82666667       0.00000000       0.00000000      -5.63578892
2
Properties=species:S:1:pos:R:3:forces:R:3 energy=20.389301128323705 pbc="F F F"
Mg       0.00000000       0.00000000       0.00000000       0.00000000       0.00000000     -11.94195366
Mg       0.00000000       0.00000000       0.88545455       0.00000000       0.00000000      11.94195366
2
Properties=species:S:1:pos:R:3:forces:R:3 energy=19.17087164050566 pbc="F F F"
Mg       0.00000000       0.00000000       0.00000000       0.00000000       0.00000000     -27.70618820
Mg       0.00000000       0.00000000       0.94424242       0.00000000       0.00000000      27.70618820
2
Properties=species:S:1:pos:R:3:forces:R:3 energy=17.279781356729117 pbc="F F F"
Mg       0.00000000       0.00000000       0.00000000       0.00000000       0.00000000     -35.86418533
Mg       0.00000000       0.00000000       1.00303030       0.00000000       0.00000000      35.86418533
2
Properties=species:S:1:pos:R:3:forces:R:3 energy=15.042129675913854 pbc="F F F"
Mg       0.00000000       0.00000000       0.00000000       0.00000000       0.00000000     -39.50215530
Mg       0.00000000       0.00000000       1.06181818       0.00000000       0.00000000      39.50215530
2
Properties=species:S:1:pos:R:3:forces:R:3 energy=12.722469680799515 pbc="F F F"
Mg       0.00000000       0.00000000       0.00000000       0.00000000       0.00000000     -38.66149902
Mg       0.00000000       0.00000000       1.12060606       0.00000000       0.00000000      38.66149902
2
Properties=species:S:1:pos:R:3:forces:R:3 energy=10.583193428124774 pbc="F F F"
Mg       0.00000000       0.00000000       0.00000000       0.00000000       0.00000000     -33.53755569
Mg       0.00000000       0.00000000       1.17939394       0.00000000       0.00000000      33.53755569
2
Properties=species:S:1:pos:R:3:forces:R:3 energy=8.790417645038458 pbc="F F F"
Mg       0.00000000       0.00000000       0.00000000       0.00000000       0.00000000     -27.95984077
Mg       0.00000000       0.00000000       1.23818182       0.00000000       0.00000000      27.95984077
2
Properties=species:S:1:pos:R:3:forces:R:3 energy=7.199499991153996 pbc="F F F"
Mg       0.00000000       0.00000000       0.00000000       0.00000000       0.00000000     -26.85939407
Mg       0.00000000       0.00000000       1.29696970       0.00000000       0.00000000      26.85939407
2
Properties=species:S:1:pos:R:3:forces:R:3 energy=5.623743480836642 pbc="F F F"
Mg       0.00000000       0.00000000       0.00000000       0.00000000       0.00000000     -26.21464729
Mg       0.00000000       0.00000000       1.35575758       0.00000000       0.00000000      26.21464729
2
Properties=species:S:1:pos:R:3:forces:R:3 energy=4.195325967587497 pbc="F F F"
Mg       0.00000000       0.00000000       0.00000000       0.00000000       0.00000000     -21.93465424
Mg       0.00000000       0.00000000       1.41454545       0.00000000       0.00000000      21.93465424
2
Properties=species:S:1:pos:R:3:forces:R:3 energy=3.052231749399186 pbc="F F F"
Mg       0.00000000       0.00000000       0.00000000       0.00000000       0.00000000     -17.18402863
Mg       0.00000000       0.00000000       1.47333333       0.00000000       0.00000000      17.18402863
2
Properties=species:S:1:pos:R:3:forces:R:3 energy=2.1360149243011515 pbc="F F F"
Mg       0.00000000       0.00000000       0.00000000       0.00000000       0.00000000     -14.31749535
Mg       0.00000000       0.00000000       1.53212121       0.00000000       0.00000000      14.31749535
2
Properties=species:S:1:pos:R:3:forces:R:3 energy=1.3392393454407803 pbc="F F F"
Mg       0.00000000       0.00000000       0.00000000       0.00000000       0.00000000     -12.94904423
Mg       0.00000000       0.00000000       1.59090909       0.00000000       0.00000000      12.94904423
2
Properties=species:S:1:pos:R:3:forces:R:3 energy=0.6035530588550576 pbc="F F F"
Mg       0.00000000       0.00000000       0.00000000       0.00000000       0.00000000     -12.11072254
Mg       0.00000000       0.00000000       1.64969697       0.00000000       0.00000000      12.11072254
2
Properties=species:S:1:pos:R:3:forces:R:3 energy=-0.08536714783936675 pbc="F F F"
Mg       0.00000000       0.00000000       0.00000000       0.00000000       0.00000000     -11.31982708
Mg       0.00000000       0.00000000       1.70848485       0.00000000       0.00000000      11.31982708
2
Properties=species:S:1:pos:R:3:forces:R:3 energy=-0.7262800025793359 pbc="F F F"
Mg       0.00000000       0.00000000       0.00000000       0.00000000       0.00000000     -10.47538853
Mg       0.00000000       0.00000000       1.76727273       0.00000000       0.00000000      10.47538853
2
Properties=species:S:1:pos:R:3:forces:R:3 energy=-1.316175904875252 pbc="F F F"
Mg       0.00000000       0.00000000       0.00000000       0.00000000       0.00000000      -9.58795929
Mg       0.00000000       0.00000000       1.82606061       0.00000000       0.00000000       9.58795929
2
Properties=species:S:1:pos:R:3:forces:R:3 energy=-1.85322803455324 pbc="F F F"
Mg       0.00000000       0.00000000       0.00000000       0.00000000       0.00000000      -8.68196678
Mg       0.00000000       0.00000000       1.88484848       0.00000000       0.00000000       8.68196678
2
Properties=species:S:1:pos:R:3:forces:R:3 energy=-2.3370670353008505 pbc="F F F"
Mg       0.00000000       0.00000000       0.00000000       0.00000000       0.00000000      -7.78093052
Mg       0.00000000       0.00000000       1.94363636       0.00000000       0.00000000       7.78093052
2
Properties=species:S:1:pos:R:3:forces:R:3 energy=-2.7684154857231644 pbc="F F F"
Mg       0.00000000       0.00000000       0.00000000       0.00000000       0.00000000      -6.89655542
Mg       0.00000000       0.00000000       2.00242424       0.00000000       0.00000000       6.89655542
2
Properties=species:S:1:pos:R:3:forces:R:3 energy=-3.1481688353181325 pbc="F F F"
Mg       0.00000000       0.00000000       0.00000000       0.00000000       0.00000000      -6.02376461
Mg       0.00000000       0.00000000       2.06121212       0.00000000       0.00000000       6.02376461
2
Properties=species:S:1:pos:R:3:forces:R:3 energy=-3.476666795714931 pbc="F F F"
Mg       0.00000000       0.00000000       0.00000000       0.00000000       0.00000000      -5.15165901
Mg       0.00000000       0.00000000       2.12000000       0.00000000       0.00000000       5.15165901
2
Properties=species:S:1:pos:R:3:forces:R:3 energy=-3.7539551226899035 pbc="F F F"
Mg       0.00000000       0.00000000       0.00000000       0.00000000       0.00000000      -4.28450775
Mg       0.00000000       0.00000000       2.17878788       0.00000000       0.00000000       4.28450775
2
Properties=species:S:1:pos:R:3:forces:R:3 energy=-3.9811668019217845 pbc="F F F"
Mg       0.00000000       0.00000000       0.00000000       0.00000000       0.00000000      -3.45620632
Mg       0.00000000       0.00000000       2.23757576       0.00000000       0.00000000       3.45620632
2
Properties=species:S:1:pos:R:3:forces:R:3 energy=-4.162217249438622 pbc="F F F"
Mg       0.00000000       0.00000000       0.00000000       0.00000000       0.00000000      -2.72467852
Mg       0.00000000       0.00000000       2.29636364       0.00000000       0.00000000       2.72467852
2
Properties=species:S:1:pos:R:3:forces:R:3 energy=-4.304579653588748 pbc="F F F"
Mg       0.00000000       0.00000000       0.00000000       0.00000000       0.00000000      -2.14821815
Mg       0.00000000       0.00000000       2.35515152       0.00000000       0.00000000       2.14821815
2
Properties=species:S:1:pos:R:3:forces:R:3 energy=-4.418478250516388 pbc="F F F"
Mg       0.00000000       0.00000000       0.00000000       0.00000000       0.00000000      -1.75819492
Mg       0.00000000       0.00000000       2.41393939       0.00000000       0.00000000       1.75819492
2
Properties=species:S:1:pos:R:3:forces:R:3 energy=-4.514769768345983 pbc="F F F"
Mg       0.00000000       0.00000000       0.00000000       0.00000000       0.00000000      -1.54391086
Mg       0.00000000       0.00000000       2.47272727       0.00000000       0.00000000       1.54391086
2
Properties=species:S:1:pos:R:3:forces:R:3 energy=-4.602517374755918 pbc="F F F"
Mg       0.00000000       0.00000000       0.00000000       0.00000000       0.00000000      -1.45728052
Mg       0.00000000       0.00000000       2.53151515       0.00000000       0.00000000       1.45728052
2
Properties=species:S:1:pos:R:3:forces:R:3 energy=-4.687317525082475 pbc="F F F"
Mg       0.00000000       0.00000000       0.00000000       0.00000000       0.00000000      -1.43241894
Mg       0.00000000       0.00000000       2.59030303       0.00000000       0.00000000       1.43241894
2
Properties=species:S:1:pos:R:3:forces:R:3 energy=-4.770923755225031 pbc="F F F"
Mg       0.00000000       0.00000000       0.00000000       0.00000000       0.00000000      -1.40764761
Mg       0.00000000       0.00000000       2.64909091       0.00000000       0.00000000       1.40764761
2
Properties=species:S:1:pos:R:3:forces:R:3 energy=-4.851977246857582 pbc="F F F"
Mg       0.00000000       0.00000000       0.00000000       0.00000000       0.00000000      -1.34057176
Mg       0.00000000       0.00000000       2.70787879       0.00000000       0.00000000       1.34057176
2
Properties=species:S:1:pos:R:3:forces:R:3 energy=-4.927359124938117 pbc="F F F"
Mg       0.00000000       0.00000000       0.00000000       0.00000000       0.00000000      -1.21387994
Mg       0.00000000       0.00000000       2.76666667       0.00000000       0.00000000       1.21387994
2
Properties=species:S:1:pos:R:3:forces:R:3 energy=-4.993630505926389 pbc="F F F"
Mg       0.00000000       0.00000000       0.00000000       0.00000000       0.00000000      -1.03309274
Mg       0.00000000       0.00000000       2.82545455       0.00000000       0.00000000       1.03309274
2
Properties=species:S:1:pos:R:3:forces:R:3 energy=-5.0481592243110525 pbc="F F F"
Mg       0.00000000       0.00000000       0.00000000       0.00000000       0.00000000      -0.81847483
Mg       0.00000000       0.00000000       2.88424242       0.00000000       0.00000000       0.81847483
2
Properties=species:S:1:pos:R:3:forces:R:3 energy=-5.0896957613740605 pbc="F F F"
Mg       0.00000000       0.00000000       0.00000000       0.00000000       0.00000000      -0.59522313
Mg       0.00000000       0.00000000       2.94303030       0.00000000       0.00000000       0.59522313
2
Properties=species:S:1:pos:R:3:forces:R:3 energy=-5.118428830254179 pbc="F F F"
Mg       0.00000000       0.00000000       0.00000000       0.00000000       0.00000000      -0.38634950
Mg       0.00000000       0.00000000       3.00181818       0.00000000       0.00000000       0.38634950
2
Properties=species:S:1:pos:R:3:forces:R:3 energy=-5.1357544305800245 pbc="F F F"
Mg       0.00000000       0.00000000       0.00000000       0.00000000       0.00000000      -0.20959014
Mg       0.00000000       0.00000000       3.06060606       0.00000000       0.00000000       0.20959014
2
Properties=species:S:1:pos:R:3:forces:R:3 energy=-5.14393077880751 pbc="F F F"
Mg       0.00000000       0.00000000       0.00000000       0.00000000       0.00000000      -0.07640354
Mg       0.00000000       0.00000000       3.11939394       0.00000000       0.00000000       0.07640354
2
Properties=species:S:1:pos:R:3:forces:R:3 energy=-5.145683070084614 pbc="F F F"
Mg       0.00000000       0.00000000       0.00000000       0.00000000       0.00000000       0.00882170
Mg       0.00000000       0.00000000       3.17818182       0.00000000       0.00000000      -0.00882170
2
Properties=species:S:1:pos:R:3:forces:R:3 energy=-5.143775340125171 pbc="F F F"
Mg       0.00000000       0.00000000       0.00000000       0.00000000       0.00000000       0.04925212
Mg       0.00000000       0.00000000       3.23696970       0.00000000       0.00000000      -0.04925212
2
Properties=species:S:1:pos:R:3:forces:R:3 energy=-5.140578456447389 pbc="F F F"
Mg       0.00000000       0.00000000       0.00000000       0.00000000       0.00000000       0.05478004
Mg       0.00000000       0.00000000       3.29575758       0.00000000       0.00000000      -0.05478004
2
Properties=species:S:1:pos:R:3:forces:R:3 energy=-5.1377532164923 pbc="F F F"
Mg       0.00000000       0.00000000       0.00000000       0.00000000       0.00000000       0.03891195
Mg       0.00000000       0.00000000       3.35454545       0.00000000       0.00000000      -0.03891195
2
Properties=species:S:1:pos:R:3:forces:R:3 energy=-5.136174235944316 pbc="F F F"
Mg       0.00000000       0.00000000       0.00000000       0.00000000       0.00000000       0.01418399
Mg       0.00000000       0.00000000       3.41333333       0.00000000       0.00000000      -0.01418399
2
Properties=species:S:1:pos:R:3:forces:R:3 energy=-5.1360789277378975 pbc="F F F"
Mg       0.00000000       0.00000000       0.00000000       0.00000000       0.00000000      -0.01031605
Mg       0.00000000       0.00000000       3.47212121       0.00000000       0.00000000       0.01031605
2
Properties=species:S:1:pos:R:3:forces:R:3 energy=-5.1372596592507875 pbc="F F F"
Mg       0.00000000       0.00000000       0.00000000       0.00000000       0.00000000      -0.02839050
Mg       0.00000000       0.00000000       3.53090909       0.00000000       0.00000000       0.02839050
2
Properties=species:S:1:pos:R:3:forces:R:3 energy=-5.139210816181392 pbc="F F F"
Mg       0.00000000       0.00000000       0.00000000       0.00000000       0.00000000      -0.03602152
Mg       0.00000000       0.00000000       3.58969697       0.00000000       0.00000000       0.03602152
2
Properties=species:S:1:pos:R:3:forces:R:3 energy=-5.141254655168595 pbc="F F F"
Mg       0.00000000       0.00000000       0.00000000       0.00000000       0.00000000      -0.03145016
Mg       0.00000000       0.00000000       3.64848485       0.00000000       0.00000000       0.03145016
2
Properties=species:S:1:pos:R:3:forces:R:3 energy=-5.142677200761775 pbc="F F F"
Mg       0.00000000       0.00000000       0.00000000       0.00000000       0.00000000      -0.01513749
Mg       0.00000000       0.00000000       3.70727273       0.00000000       0.00000000       0.01513749
2
Properties=species:S:1:pos:R:3:forces:R:3 energy=-5.142845421687864 pbc="F F F"
Mg       0.00000000       0.00000000       0.00000000       0.00000000       0.00000000       0.01076792
Mg       0.00000000       0.00000000       3.76606061       0.00000000       0.00000000      -0.01076792
2
Properties=species:S:1:pos:R:3:forces:R:3 energy=-5.1412827798789005 pbc="F F F"
Mg       0.00000000       0.00000000       0.00000000       0.00000000       0.00000000       0.04322080
Mg       0.00000000       0.00000000       3.82484848       0.00000000       0.00000000      -0.04322080
2
Properties=species:S:1:pos:R:3:forces:R:3 energy=-5.13769858307627 pbc="F F F"
Mg       0.00000000       0.00000000       0.00000000       0.00000000       0.00000000       0.07902395
Mg       0.00000000       0.00000000       3.88363636       0.00000000       0.00000000      -0.07902395
2
Properties=species:S:1:pos:R:3:forces:R:3 energy=-5.131982222707479 pbc="F F F"
Mg       0.00000000       0.00000000       0.00000000       0.00000000       0.00000000       0.11531340
Mg       0.00000000       0.00000000       3.94242424       0.00000000       0.00000000      -0.11531340
2
Properties=species:S:1:pos:R:3:forces:R:3 energy=-5.12417646434995 pbc="F F F"
Mg       0.00000000       0.00000000       0.00000000       0.00000000       0.00000000       0.14977702
Mg       0.00000000       0.00000000       4.00121212       0.00000000       0.00000000      -0.14977702
2
Properties=species:S:1:pos:R:3:forces:R:3 energy=-5.114442847534886 pbc="F F F"
Mg       0.00000000       0.00000000       0.00000000       0.00000000       0.00000000       0.18065630
Mg       0.00000000       0.00000000       4.06000000       0.00000000       0.00000000      -0.18065630
2
Properties=species:S:1:pos:R:3:forces:R:3 energy=-5.10303189518433 pbc="F F F"
Mg       0.00000000       0.00000000       0.00000000       0.00000000       0.00000000       0.20665142
Mg       0.00000000       0.00000000       4.11878788       0.00000000       0.00000000      -0.20665142
2
Properties=species:S:1:pos:R:3:forces:R:3 energy=-5.090260168326842 pbc="F F F"
Mg       0.00000000       0.00000000       0.00000000       0.00000000       0.00000000       0.22681645
Mg       0.00000000       0.00000000       4.17757576       0.00000000       0.00000000      -0.22681645
2
Properties=species:S:1:pos:R:3:forces:R:3 energy=-5.076491045227524 pbc="F F F"
Mg       0.00000000       0.00000000       0.00000000       0.00000000       0.00000000       0.24049141
Mg       0.00000000       0.00000000       4.23636364       0.00000000       0.00000000      -0.24049141
2
Properties=species:S:1:pos:R:3:forces:R:3 energy=-5.062118610294943 pbc="F F F"
Mg       0.00000000       0.00000000       0.00000000       0.00000000       0.00000000       0.24729559
Mg       0.00000000       0.00000000       4.29515152       0.00000000       0.00000000      -0.24729559
2
Properties=species:S:1:pos:R:3:forces:R:3 energy=-5.047551617431886 pbc="F F F"
Mg       0.00000000       0.00000000       0.00000000       0.00000000       0.00000000       0.24715742
Mg       0.00000000       0.00000000       4.35393939       0.00000000       0.00000000      -0.24715742
2
Properties=species:S:1:pos:R:3:forces:R:3 energy=-5.033189684607401 pbc="F F F"
Mg       0.00000000       0.00000000       0.00000000       0.00000000       0.00000000       0.24036697
Mg       0.00000000       0.00000000       4.41272727       0.00000000       0.00000000      -0.24036697
2
Properties=species:S:1:pos:R:3:forces:R:3 energy=-5.019407173260262 pbc="F F F"
Mg       0.00000000       0.00000000       0.00000000       0.00000000       0.00000000       0.22761278
Mg       0.00000000       0.00000000       4.47151515       0.00000000       0.00000000      -0.22761278
2
Properties=species:S:1:pos:R:3:forces:R:3 energy=-5.0065240917288545 pbc="F F F"
Mg       0.00000000       0.00000000       0.00000000       0.00000000       0.00000000       0.20997155
Mg       0.00000000       0.00000000       4.53030303       0.00000000       0.00000000      -0.20997155
2
Properties=species:S:1:pos:R:3:forces:R:3 energy=-4.994788027708223 pbc="F F F"
Mg       0.00000000       0.00000000       0.00000000       0.00000000       0.00000000       0.18884458
Mg       0.00000000       0.00000000       4.58909091       0.00000000       0.00000000      -0.18884458
2
Properties=species:S:1:pos:R:3:forces:R:3 energy=-4.984357948457988 pbc="F F F"
Mg       0.00000000       0.00000000       0.00000000       0.00000000       0.00000000       0.16580577
Mg       0.00000000       0.00000000       4.64787879       0.00000000       0.00000000      -0.16580577
2
Properties=species:S:1:pos:R:3:forces:R:3 energy=-4.975299925107028 pbc="F F F"
Mg       0.00000000       0.00000000       0.00000000       0.00000000       0.00000000       0.14241001
Mg       0.00000000       0.00000000       4.70666667       0.00000000       0.00000000      -0.14241001
2
Properties=species:S:1:pos:R:3:forces:R:3 energy=-4.967594763631922 pbc="F F F"
Mg       0.00000000       0.00000000       0.00000000       0.00000000       0.00000000       0.11999847
Mg       0.00000000       0.00000000       4.76545455       0.00000000       0.00000000      -0.11999847
2
Properties=species:S:1:pos:R:3:forces:R:3 energy=-4.961152297300412 pbc="F F F"
Mg       0.00000000       0.00000000       0.00000000       0.00000000       0.00000000       0.09953994
Mg       0.00000000       0.00000000       4.82424242       0.00000000       0.00000000      -0.09953994
2
Properties=species:S:1:pos:R:3:forces:R:3 energy=-4.955841931176008 pbc="F F F"
Mg       0.00000000       0.00000000       0.00000000       0.00000000       0.00000000       0.08158777
Mg       0.00000000       0.00000000       4.88303030       0.00000000       0.00000000      -0.08158777
2
Properties=species:S:1:pos:R:3:forces:R:3 energy=-4.9515073923916795 pbc="F F F"
Mg       0.00000000       0.00000000       0.00000000       0.00000000       0.00000000       0.06629716
Mg       0.00000000       0.00000000       4.94181818       0.00000000       0.00000000      -0.06629716
2
Properties=species:S:1:pos:R:3:forces:R:3 energy=-4.947996769306903 pbc="F F F"
Mg       0.00000000       0.00000000       0.00000000       0.00000000       0.00000000       0.05356030
Mg       0.00000000       0.00000000       5.00060606       0.00000000       0.00000000      -0.05356030
2
Properties=species:S:1:pos:R:3:forces:R:3 energy=-4.945164902029106 pbc="F F F"
Mg       0.00000000       0.00000000       0.00000000       0.00000000       0.00000000       0.04312775
Mg       0.00000000       0.00000000       5.05939394       0.00000000       0.00000000      -0.04312775
2
Properties=species:S:1:pos:R:3:forces:R:3 energy=-4.942885265328747 pbc="F F F"
Mg       0.00000000       0.00000000       0.00000000       0.00000000       0.00000000       0.03477154
Mg       0.00000000       0.00000000       5.11818182       0.00000000       0.00000000      -0.03477154
2
Properties=species:S:1:pos:R:3:forces:R:3 energy=-4.941037564537566 pbc="F F F"
Mg       0.00000000       0.00000000       0.00000000       0.00000000       0.00000000       0.02843329
Mg       0.00000000       0.00000000       5.17696970       0.00000000       0.00000000      -0.02843329
2
Properties=species:S:1:pos:R:3:forces:R:3 energy=-4.939498211476704 pbc="F F F"
Mg       0.00000000       0.00000000       0.00000000       0.00000000       0.00000000       0.02434155
Mg       0.00000000       0.00000000       5.23575758       0.00000000       0.00000000      -0.02434155
2
Properties=species:S:1:pos:R:3:forces:R:3 energy=-4.93812308387519 pbc="F F F"
Mg       0.00000000       0.00000000       0.00000000       0.00000000       0.00000000       0.02291015
Mg       0.00000000       0.00000000       5.29454545       0.00000000       0.00000000      -0.02291015
2
Properties=species:S:1:pos:R:3:forces:R:3 energy=-4.936754243855753 pbc="F F F"
Mg       0.00000000       0.00000000       0.00000000       0.00000000       0.00000000       0.02397928
Mg       0.00000000       0.00000000       5.35333333       0.00000000       0.00000000      -0.02397928
2
Properties=species:S:1:pos:R:3:forces:R:3 energy=-4.935300005395713 pbc="F F F"
Mg       0.00000000       0.00000000       0.00000000       0.00000000       0.00000000       0.02513325
Mg       0.00000000       0.00000000       5.41212121       0.00000000       0.00000000      -0.02513325
2
Properties=species:S:1:pos:R:3:forces:R:3 energy=-4.933886536865067 pbc="F F F"
Mg       0.00000000       0.00000000       0.00000000       0.00000000       0.00000000       0.02202209
Mg       0.00000000       0.00000000       5.47090909       0.00000000       0.00000000      -0.02202209
2
Properties=species:S:1:pos:R:3:forces:R:3 energy=-4.932772526182107 pbc="F F F"
Mg       0.00000000       0.00000000       0.00000000       0.00000000       0.00000000       0.01607940
Mg       0.00000000       0.00000000       5.52969697       0.00000000       0.00000000      -0.01607940
2
Properties=species:S:1:pos:R:3:forces:R:3 energy=-4.931903307976184 pbc="F F F"
Mg       0.00000000       0.00000000       0.00000000       0.00000000       0.00000000       0.01441677
Mg       0.00000000       0.00000000       5.58848485       0.00000000       0.00000000      -0.01441677
2
Properties=species:S:1:pos:R:3:forces:R:3 energy=-4.931023875578121 pbc="F F F"
Mg       0.00000000       0.00000000       0.00000000       0.00000000       0.00000000       0.01534090
Mg       0.00000000       0.00000000       5.64727273       0.00000000       0.00000000      -0.01534090
2
Properties=species:S:1:pos:R:3:forces:R:3 energy=-4.930183335135805 pbc="F F F"
Mg       0.00000000       0.00000000       0.00000000       0.00000000       0.00000000       0.01221366
Mg       0.00000000       0.00000000       5.70606061       0.00000000       0.00000000      -0.01221366
2
Properties=species:S:1:pos:R:3:forces:R:3 energy=-4.929682017871323 pbc="F F F"
Mg       0.00000000       0.00000000       0.00000000       0.00000000       0.00000000       0.00472146
Mg       0.00000000       0.00000000       5.76484848       0.00000000       0.00000000      -0.00472146
2
Properties=species:S:1:pos:R:3:forces:R:3 energy=-4.929538345251822 pbc="F F F"
Mg       0.00000000       0.00000000       0.00000000       0.00000000       0.00000000       0.00138546
Mg       0.00000000       0.00000000       5.82363636       0.00000000       0.00000000      -0.00138546
2
Properties=species:S:1:pos:R:3:forces:R:3 energy=-4.929408231630439 pbc="F F F"
Mg       0.00000000       0.00000000       0.00000000       0.00000000       0.00000000       0.00340316
Mg       0.00000000       0.00000000       5.88242424       0.00000000       0.00000000      -0.00340316
2
Properties=species:S:1:pos:R:3:forces:R:3 energy=-4.92913919436671 pbc="F F F"
Mg       0.00000000       0.00000000       0.00000000       0.00000000       0.00000000       0.00555859
Mg       0.00000000       0.00000000       5.94121212       0.00000000       0.00000000      -0.00555859
2
Properties=species:S:1:pos:R:3:forces:R:3 energy=-4.928785600736301 pbc="F F F"
Mg       0.00000000       0.00000000       0.00000000       0.00000000       0.00000000       0.00619223
Mg       0.00000000       0.00000000       6.00000000       0.00000000       0.00000000      -0.00619223
