2
Properties=species:S:1:pos:R:3:forces:R:3 energy=-196629.86772532453 pbc="F F F"
Mn       0.00000000       0.00000000       0.00000000       0.00000000       0.00000000   40799.57421875
Mn       0.00000000       0.00000000       0.18000000       0.00000000       0.00000000  -40799.57421875
2
Properties=species:S:1:pos:R:3:forces:R:3 energy=-189239.14897532453 pbc="F F F"
Mn       0.00000000       0.00000000       0.00000000       0.00000000       0.00000000  219566.90625000
Mn       0.00000000       0.00000000       0.23878788       0.00000000       0.00000000 -219566.90625000
2
Properties=species:S:1:pos:R:3:forces:R:3 energy=-169465.91460032453 pbc="F F F"
Mn       0.00000000       0.00000000       0.00000000       0.00000000       0.00000000  463313.37500000
Mn       0.00000000       0.00000000       0.29757576       0.00000000       0.00000000 -463313.37500000
2
Properties=species:S:1:pos:R:3:forces:R:3 energy=-134368.80522532374 pbc="F F F"
Mn       0.00000000       0.00000000       0.00000000       0.00000000       0.00000000  723465.87500000
Mn       0.00000000       0.00000000       0.35636364       0.00000000       0.00000000 -723465.87500000
2
Properties=species:S:1:pos:R:3:forces:R:3 energy=-87041.23491282374 pbc="F F F"
Mn       0.00000000       0.00000000       0.00000000       0.00000000       0.00000000  848469.25000000
Mn       0.00000000       0.00000000       0.41515152       0.00000000       0.00000000 -848469.25000000
2
Properties=species:S:1:pos:R:3:forces:R:3 energy=-39679.133350322954 pbc="F F F"
Mn       0.00000000       0.00000000       0.00000000       0.00000000       0.00000000  757634.43750000
Mn       0.00000000       0.00000000       0.47393939       0.00000000       0.00000000 -757634.43750000
2
Properties=species:S:1:pos:R:3:forces:R:3 energy=-7506.294971415119 pbc="F F F"
Mn       0.00000000       0.00000000       0.00000000       0.00000000       0.00000000  326993.31250000
Mn       0.00000000       0.00000000       0.53272727       0.00000000       0.00000000 -326993.31250000
2
Properties=species:S:1:pos:R:3:forces:R:3 energy=1221.9359856200906 pbc="F F F"
Mn       0.00000000       0.00000000       0.00000000       0.00000000       0.00000000  -18475.16406250
Mn       0.00000000       0.00000000       0.59151515       0.00000000       0.00000000   18475.16406250
2
Properties=species:S:1:pos:R:3:forces:R:3 energy=866.2860832810923 pbc="F F F"
Mn       0.00000000       0.00000000       0.00000000       0.00000000       0.00000000   11309.84570312
Mn       0.00000000       0.00000000       0.65030303       0.00000000       0.00000000  -11309.84570312
2
Properties=species:S:1:pos:R:3:forces:R:3 energy=1484.345897741345 pbc="F F F"
Mn       0.00000000       0.00000000       0.00000000       0.00000000       0.00000000   10504.66601562
Mn       0.00000000       0.00000000       0.70909091       0.00000000       0.00000000  -10504.66601562
2
Properties=species:S:1:pos:R:3:forces:R:3 energy=1283.6504631829116 pbc="F F F"
Mn       0.00000000       0.00000000       0.00000000       0.00000000       0.00000000   -7944.75048828
Mn       0.00000000       0.00000000       0.76787879       0.00000000       0.00000000    7944.75048828
2
Properties=species:S:1:pos:R:3:forces:R:3 energy=872.4210320479909 pbc="F F F"
Mn       0.00000000       0.00000000       0.00000000       0.00000000       0.00000000   -6021.05175781
Mn       0.00000000       0.00000000       0.82666667       0.00000000       0.00000000    6021.05175781
2
Properties=species:S:1:pos:R:3:forces:R:3 energy=552.1372796319273 pbc="F F F"
Mn       0.00000000       0.00000000       0.00000000       0.00000000       0.00000000   -4895.30664062
Mn       0.00000000       0.00000000       0.88545455       0.00000000       0.00000000    4895.30664062
2
Properties=species:S:1:pos:R:3:forces:R:3 energy=318.04545227340327 pbc="F F F"
Mn       0.00000000       0.00000000       0.00000000       0.00000000       0.00000000   -3209.99438477
Mn       0.00000000       0.00000000       0.94424242       0.00000000       0.00000000    3209.99438477
2
Properties=species:S:1:pos:R:3:forces:R:3 energy=168.32653447344896 pbc="F F F"
Mn       0.00000000       0.00000000       0.00000000       0.00000000       0.00000000   -1934.07507324
Mn       0.00000000       0.00000000       1.00303030       0.00000000       0.00000000    1934.07507324
2
Properties=species:S:1:pos:R:3:forces:R:3 energy=77.84104564599578 pbc="F F F"
Mn       0.00000000       0.00000000       0.00000000       0.00000000       0.00000000   -1182.64453125
Mn       0.00000000       0.00000000       1.06181818       0.00000000       0.00000000    1182.64453125
2
Properties=species:S:1:pos:R:3:forces:R:3 energy=22.943283431359085 pbc="F F F"
Mn       0.00000000       0.00000000       0.00000000       0.00000000       0.00000000    -602.82147217
Mn       0.00000000       0.00000000       1.12060606       0.00000000       0.00000000     602.82147217
2
Properties=species:S:1:pos:R:3:forces:R:3 energy=24.519752962827624 pbc="F F F"
Mn       0.00000000       0.00000000       0.00000000       0.00000000       0.00000000     101.39820862
Mn       0.00000000       0.00000000       1.17939394       0.00000000       0.00000000    -101.39820862
2
Properties=species:S:1:pos:R:3:forces:R:3 energy=30.936661369539777 pbc="F F F"
Mn       0.00000000       0.00000000       0.00000000       0.00000000       0.00000000     116.73334503
Mn       0.00000000       0.00000000       1.23818182       0.00000000       0.00000000    -116.73334503
2
Properties=species:S:1:pos:R:3:forces:R:3 energy=37.9025734137561 pbc="F F F"
Mn       0.00000000       0.00000000       0.00000000       0.00000000       0.00000000      95.27114105
Mn       0.00000000       0.00000000       1.29696970       0.00000000       0.00000000     -95.27114105
2
Properties=species:S:1:pos:R:3:forces:R:3 energy=31.281327302364762 pbc="F F F"
Mn       0.00000000       0.00000000       0.00000000       0.00000000       0.00000000    -142.98489380
Mn       0.00000000       0.00000000       1.35575758       0.00000000       0.00000000     142.98489380
2
Properties=species:S:1:pos:R:3:forces:R:3 energy=22.78211341193765 pbc="F F F"
Mn       0.00000000       0.00000000       0.00000000       0.00000000       0.00000000    -212.23034668
Mn       0.00000000       0.00000000       1.41454545       0.00000000       0.00000000     212.23034668
2
Properties=species:S:1:pos:R:3:forces:R:3 energy=9.180398670923552 pbc="F F F"
Mn       0.00000000       0.00000000       0.00000000       0.00000000       0.00000000    -230.50875854
Mn       0.00000000       0.00000000       1.47333333       0.00000000       0.00000000     230.50875854
2
Properties=species:S:1:pos:R:3:forces:R:3 energy=-2.56726249912423 pbc="F F F"
Mn       0.00000000       0.00000000       0.00000000       0.00000000       0.00000000    -164.76977539
Mn       0.00000000       0.00000000       1.53212121       0.00000000       0.00000000     164.76977539
2
Properties=species:S:1:pos:R:3:forces:R:3 energy=-11.729070963822796 pbc="F F F"
Mn       0.00000000       0.00000000       0.00000000       0.00000000       0.00000000    -175.59336853
Mn       0.00000000       0.00000000       1.59090909       0.00000000       0.00000000     175.59336853
2
Properties=species:S:1:pos:R:3:forces:R:3 energy=-13.838030557958461 pbc="F F F"
Mn       0.00000000       0.00000000       0.00000000       0.00000000       0.00000000     185.30256653
Mn       0.00000000       0.00000000       1.64969697       0.00000000       0.00000000    -185.30256653
2
Properties=species:S:1:pos:R:3:forces:R:3 energy=-1.6832753348234 pbc="F F F"
Mn       0.00000000       0.00000000       0.00000000       0.00000000       0.00000000     176.80976868
Mn       0.00000000       0.00000000       1.70848485       0.00000000       0.00000000    -176.80976868
2
Properties=species:S:1:pos:R:3:forces:R:3 energy=3.4733261320961364 pbc="F F F"
Mn       0.00000000       0.00000000       0.00000000       0.00000000       0.00000000     -10.40203190
Mn       0.00000000       0.00000000       1.76727273       0.00000000       0.00000000      10.40203190
2
Properties=species:S:1:pos:R:3:forces:R:3 energy=-2.3222573964744764 pbc="F F F"
Mn       0.00000000       0.00000000       0.00000000       0.00000000       0.00000000    -178.31915283
Mn       0.00000000       0.00000000       1.82606061       0.00000000       0.00000000     178.31915283
2
Properties=species:S:1:pos:R:3:forces:R:3 energy=-16.180517172484002 pbc="F F F"
Mn       0.00000000       0.00000000       0.00000000       0.00000000       0.00000000    -255.76023865
Mn       0.00000000       0.00000000       1.88484848       0.00000000       0.00000000     255.76023865
2
Properties=species:S:1:pos:R:3:forces:R:3 energy=-21.416834126297164 pbc="F F F"
Mn       0.00000000       0.00000000       0.00000000       0.00000000       0.00000000      31.97683334
Mn       0.00000000       0.00000000       1.94363636       0.00000000       0.00000000     -31.97683334
2
Properties=species:S:1:pos:R:3:forces:R:3 energy=-20.454555337136895 pbc="F F F"
Mn       0.00000000       0.00000000       0.00000000       0.00000000       0.00000000       1.59022212
Mn       0.00000000       0.00000000       2.00242424       0.00000000       0.00000000      -1.59022212
2
Properties=species:S:1:pos:R:3:forces:R:3 energy=-20.877139442838025 pbc="F F F"
Mn       0.00000000       0.00000000       0.00000000       0.00000000       0.00000000     -14.18335819
Mn       0.00000000       0.00000000       2.06121212       0.00000000       0.00000000      14.18335819
2
Properties=species:S:1:pos:R:3:forces:R:3 energy=-21.894420153359007 pbc="F F F"
Mn       0.00000000       0.00000000       0.00000000       0.00000000       0.00000000     -18.57947922
Mn       0.00000000       0.00000000       2.12000000       0.00000000       0.00000000      18.57947922
2
Properties=species:S:1:pos:R:3:forces:R:3 energy=-22.883163373687786 pbc="F F F"
Mn       0.00000000       0.00000000       0.00000000       0.00000000       0.00000000     -13.99187851
Mn       0.00000000       0.00000000       2.17878788       0.00000000       0.00000000      13.99187851
2
Properties=species:S:1:pos:R:3:forces:R:3 energy=-23.50102957972464 pbc="F F F"
Mn       0.00000000       0.00000000       0.00000000       0.00000000       0.00000000      -7.38405466
Mn       0.00000000       0.00000000       2.23757576       0.00000000       0.00000000       7.38405466
2
Properties=species:S:1:pos:R:3:forces:R:3 energy=-23.8120167050401 pbc="F F F"
Mn       0.00000000       0.00000000       0.00000000       0.00000000       0.00000000      -3.55528593
Mn       0.00000000       0.00000000       2.29636364       0.00000000       0.00000000       3.55528593
2
Properties=species:S:1:pos:R:3:forces:R:3 energy=-23.944053853876838 pbc="F F F"
Mn       0.00000000       0.00000000       0.00000000       0.00000000       0.00000000      -1.21397269
Mn       0.00000000       0.00000000       2.35515152       0.00000000       0.00000000       1.21397269
2
Properties=species:S:1:pos:R:3:forces:R:3 energy=-23.99490542161442 pbc="F F F"
Mn       0.00000000       0.00000000       0.00000000       0.00000000       0.00000000      -0.65126914
Mn       0.00000000       0.00000000       2.41393939       0.00000000       0.00000000       0.65126914
2
Properties=species:S:1:pos:R:3:forces:R:3 energy=-23.997533505738797 pbc="F F F"
Mn       0.00000000       0.00000000       0.00000000       0.00000000       0.00000000       0.81910455
Mn       0.00000000       0.00000000       2.47272727       0.00000000       0.00000000      -0.81910455
2
Properties=species:S:1:pos:R:3:forces:R:3 energy=-23.902490170118323 pbc="F F F"
Mn       0.00000000       0.00000000       0.00000000       0.00000000       0.00000000       2.12268353
Mn       0.00000000       0.00000000       2.53151515       0.00000000       0.00000000      -2.12268353
2
Properties=species:S:1:pos:R:3:forces:R:3 energy=-23.785609861521692 pbc="F F F"
Mn       0.00000000       0.00000000       0.00000000       0.00000000       0.00000000       1.61613703
Mn       0.00000000       0.00000000       2.59030303       0.00000000       0.00000000      -1.61613703
2
Properties=species:S:1:pos:R:3:forces:R:3 energy=-23.72599159138507 pbc="F F F"
Mn       0.00000000       0.00000000       0.00000000       0.00000000       0.00000000       0.39877862
Mn       0.00000000       0.00000000       2.64909091       0.00000000       0.00000000      -0.39877862
2
Properties=species:S:1:pos:R:3:forces:R:3 energy=-23.733408276111263 pbc="F F F"
Mn       0.00000000       0.00000000       0.00000000       0.00000000       0.00000000      -0.57313228
Mn       0.00000000       0.00000000       2.70787879       0.00000000       0.00000000       0.57313228
2
Properties=species:S:1:pos:R:3:forces:R:3 energy=-23.78361875115479 pbc="F F F"
Mn       0.00000000       0.00000000       0.00000000       0.00000000       0.00000000      -1.05750990
Mn       0.00000000       0.00000000       2.76666667       0.00000000       0.00000000       1.05750990
2
Properties=species:S:1:pos:R:3:forces:R:3 energy=-23.85003304560082 pbc="F F F"
Mn       0.00000000       0.00000000       0.00000000       0.00000000       0.00000000      -1.14878440
Mn       0.00000000       0.00000000       2.82545455       0.00000000       0.00000000       1.14878440
2
Properties=species:S:1:pos:R:3:forces:R:3 energy=-23.91374312174127 pbc="F F F"
Mn       0.00000000       0.00000000       0.00000000       0.00000000       0.00000000      -0.98655981
Mn       0.00000000       0.00000000       2.88424242       0.00000000       0.00000000       0.98655981
2
Properties=species:S:1:pos:R:3:forces:R:3 energy=-23.963265992253614 pbc="F F F"
Mn       0.00000000       0.00000000       0.00000000       0.00000000       0.00000000      -0.68260986
Mn       0.00000000       0.00000000       2.94303030       0.00000000       0.00000000       0.68260986
2
Properties=species:S:1:pos:R:3:forces:R:3 energy=-23.992987179624354 pbc="F F F"
Mn       0.00000000       0.00000000       0.00000000       0.00000000       0.00000000      -0.32636270
Mn       0.00000000       0.00000000       3.00181818       0.00000000       0.00000000       0.32636270
2
Properties=species:S:1:pos:R:3:forces:R:3 energy=-24.00204892238601 pbc="F F F"
Mn       0.00000000       0.00000000       0.00000000       0.00000000       0.00000000       0.00947811
Mn       0.00000000       0.00000000       3.06060606       0.00000000       0.00000000      -0.00947811
2
Properties=species:S:1:pos:R:3:forces:R:3 energy=-23.993378926536653 pbc="F F F"
Mn       0.00000000       0.00000000       0.00000000       0.00000000       0.00000000       0.26927337
Mn       0.00000000       0.00000000       3.11939394       0.00000000       0.00000000      -0.26927337
2
Properties=species:S:1:pos:R:3:forces:R:3 energy=-23.972491030319805 pbc="F F F"
Mn       0.00000000       0.00000000       0.00000000       0.00000000       0.00000000       0.42298970
Mn       0.00000000       0.00000000       3.17818182       0.00000000       0.00000000      -0.42298970
2
Properties=species:S:1:pos:R:3:forces:R:3 energy=-23.945667745204794 pbc="F F F"
Mn       0.00000000       0.00000000       0.00000000       0.00000000       0.00000000       0.47448352
Mn       0.00000000       0.00000000       3.23696970       0.00000000       0.00000000      -0.47448352
2
Properties=species:S:1:pos:R:3:forces:R:3 energy=-23.91811273007881 pbc="F F F"
Mn       0.00000000       0.00000000       0.00000000       0.00000000       0.00000000       0.45421827
Mn       0.00000000       0.00000000       3.29575758       0.00000000       0.00000000      -0.45421827
2
Properties=species:S:1:pos:R:3:forces:R:3 energy=-23.892919522274504 pbc="F F F"
Mn       0.00000000       0.00000000       0.00000000       0.00000000       0.00000000       0.40017721
Mn       0.00000000       0.00000000       3.35454545       0.00000000       0.00000000      -0.40017721
2
Properties=species:S:1:pos:R:3:forces:R:3 energy=-23.871121637069884 pbc="F F F"
Mn       0.00000000       0.00000000       0.00000000       0.00000000       0.00000000       0.34263551
Mn       0.00000000       0.00000000       3.41333333       0.00000000       0.00000000      -0.34263551
2
Properties=species:S:1:pos:R:3:forces:R:3 energy=-23.852350528522827 pbc="F F F"
Mn       0.00000000       0.00000000       0.00000000       0.00000000       0.00000000       0.29913029
Mn       0.00000000       0.00000000       3.47212121       0.00000000       0.00000000      -0.29913029
2
Properties=species:S:1:pos:R:3:forces:R:3 energy=-23.83554908199566 pbc="F F F"
Mn       0.00000000       0.00000000       0.00000000       0.00000000       0.00000000       0.27594957
Mn       0.00000000       0.00000000       3.53090909       0.00000000       0.00000000      -0.27594957
2
Properties=species:S:1:pos:R:3:forces:R:3 energy=-23.81953233030368 pbc="F F F"
Mn       0.00000000       0.00000000       0.00000000       0.00000000       0.00000000       0.27164707
Mn       0.00000000       0.00000000       3.58969697       0.00000000       0.00000000      -0.27164707
2
Properties=species:S:1:pos:R:3:forces:R:3 energy=-23.80334991014403 pbc="F F F"
Mn       0.00000000       0.00000000       0.00000000       0.00000000       0.00000000       0.28056347
Mn       0.00000000       0.00000000       3.64848485       0.00000000       0.00000000      -0.28056347
2
Properties=species:S:1:pos:R:3:forces:R:3 energy=-23.786423441882395 pbc="F F F"
Mn       0.00000000       0.00000000       0.00000000       0.00000000       0.00000000       0.29572254
Mn       0.00000000       0.00000000       3.70727273       0.00000000       0.00000000      -0.29572254
2
Properties=species:S:1:pos:R:3:forces:R:3 energy=-23.76857880559214 pbc="F F F"
Mn       0.00000000       0.00000000       0.00000000       0.00000000       0.00000000       0.31096575
Mn       0.00000000       0.00000000       3.76606061       0.00000000       0.00000000      -0.31096575
2
Properties=species:S:1:pos:R:3:forces:R:3 energy=-23.749941401606236 pbc="F F F"
Mn       0.00000000       0.00000000       0.00000000       0.00000000       0.00000000       0.32224175
Mn       0.00000000       0.00000000       3.82484848       0.00000000       0.00000000      -0.32224175
2
Properties=species:S:1:pos:R:3:forces:R:3 energy=-23.73080065273662 pbc="F F F"
Mn       0.00000000       0.00000000       0.00000000       0.00000000       0.00000000       0.32805693
Mn       0.00000000       0.00000000       3.88363636       0.00000000       0.00000000      -0.32805693
2
Properties=species:S:1:pos:R:3:forces:R:3 energy=-23.711463170107674 pbc="F F F"
Mn       0.00000000       0.00000000       0.00000000       0.00000000       0.00000000       0.32914117
Mn       0.00000000       0.00000000       3.94242424       0.00000000       0.00000000      -0.32914117
2
Properties=species:S:1:pos:R:3:forces:R:3 energy=-23.692153572611236 pbc="F F F"
Mn       0.00000000       0.00000000       0.00000000       0.00000000       0.00000000       0.32756689
Mn       0.00000000       0.00000000       4.00121212       0.00000000       0.00000000      -0.32756689
2
Properties=species:S:1:pos:R:3:forces:R:3 energy=-23.67295535434725 pbc="F F F"
Mn       0.00000000       0.00000000       0.00000000       0.00000000       0.00000000       0.32570940
Mn       0.00000000       0.00000000       4.06000000       0.00000000       0.00000000      -0.32570940
2
Properties=species:S:1:pos:R:3:forces:R:3 energy=-23.653826152916285 pbc="F F F"
Mn       0.00000000       0.00000000       0.00000000       0.00000000       0.00000000       0.32539311
Mn       0.00000000       0.00000000       4.11878788       0.00000000       0.00000000      -0.32539311
2
Properties=species:S:1:pos:R:3:forces:R:3 energy=-23.6346492985178 pbc="F F F"
Mn       0.00000000       0.00000000       0.00000000       0.00000000       0.00000000       0.32744145
Mn       0.00000000       0.00000000       4.17757576       0.00000000       0.00000000      -0.32744145
2
Properties=species:S:1:pos:R:3:forces:R:3 energy=-23.615285250590674 pbc="F F F"
Mn       0.00000000       0.00000000       0.00000000       0.00000000       0.00000000       0.33164248
Mn       0.00000000       0.00000000       4.23636364       0.00000000       0.00000000      -0.33164248
2
Properties=species:S:1:pos:R:3:forces:R:3 energy=-23.595632688406347 pbc="F F F"
Mn       0.00000000       0.00000000       0.00000000       0.00000000       0.00000000       0.33703431
Mn       0.00000000       0.00000000       4.29515152       0.00000000       0.00000000      -0.33703431
2
Properties=species:S:1:pos:R:3:forces:R:3 energy=-23.575659003304374 pbc="F F F"
Mn       0.00000000       0.00000000       0.00000000       0.00000000       0.00000000       0.34232810
Mn       0.00000000       0.00000000       4.35393939       0.00000000       0.00000000      -0.34232810
2
Properties=species:S:1:pos:R:3:forces:R:3 energy=-23.555407969268654 pbc="F F F"
Mn       0.00000000       0.00000000       0.00000000       0.00000000       0.00000000       0.34632060
Mn       0.00000000       0.00000000       4.41272727       0.00000000       0.00000000      -0.34632060
2
Properties=species:S:1:pos:R:3:forces:R:3 energy=-23.534982572037972 pbc="F F F"
Mn       0.00000000       0.00000000       0.00000000       0.00000000       0.00000000       0.34819648
Mn       0.00000000       0.00000000       4.47151515       0.00000000       0.00000000      -0.34819648
2
Properties=species:S:1:pos:R:3:forces:R:3 energy=-23.514516397292628 pbc="F F F"
Mn       0.00000000       0.00000000       0.00000000       0.00000000       0.00000000       0.34765658
Mn       0.00000000       0.00000000       4.53030303       0.00000000       0.00000000      -0.34765658
2
Properties=species:S:1:pos:R:3:forces:R:3 energy=-23.494150747222555 pbc="F F F"
Mn       0.00000000       0.00000000       0.00000000       0.00000000       0.00000000       0.34484524
Mn       0.00000000       0.00000000       4.58909091       0.00000000       0.00000000      -0.34484524
2
Properties=species:S:1:pos:R:3:forces:R:3 energy=-23.47400795982123 pbc="F F F"
Mn       0.00000000       0.00000000       0.00000000       0.00000000       0.00000000       0.34013835
Mn       0.00000000       0.00000000       4.64787879       0.00000000       0.00000000      -0.34013835
2
Properties=species:S:1:pos:R:3:forces:R:3 energy=-23.454189495201376 pbc="F F F"
Mn       0.00000000       0.00000000       0.00000000       0.00000000       0.00000000       0.33383697
Mn       0.00000000       0.00000000       4.70666667       0.00000000       0.00000000      -0.33383697
2
Properties=species:S:1:pos:R:3:forces:R:3 energy=-23.43478736859941 pbc="F F F"
Mn       0.00000000       0.00000000       0.00000000       0.00000000       0.00000000       0.32598361
Mn       0.00000000       0.00000000       4.76545455       0.00000000       0.00000000      -0.32598361
2
Properties=species:S:1:pos:R:3:forces:R:3 energy=-23.415897522406684 pbc="F F F"
Mn       0.00000000       0.00000000       0.00000000       0.00000000       0.00000000       0.31627321
Mn       0.00000000       0.00000000       4.82424242       0.00000000       0.00000000      -0.31627321
2
Properties=species:S:1:pos:R:3:forces:R:3 energy=-23.39765037225804 pbc="F F F"
Mn       0.00000000       0.00000000       0.00000000       0.00000000       0.00000000       0.30417240
Mn       0.00000000       0.00000000       4.88303030       0.00000000       0.00000000      -0.30417240
2
Properties=species:S:1:pos:R:3:forces:R:3 energy=-23.38019352210076 pbc="F F F"
Mn       0.00000000       0.00000000       0.00000000       0.00000000       0.00000000       0.28913248
Mn       0.00000000       0.00000000       4.94181818       0.00000000       0.00000000      -0.28913248
2
Properties=species:S:1:pos:R:3:forces:R:3 energy=-23.36371669277535 pbc="F F F"
Mn       0.00000000       0.00000000       0.00000000       0.00000000       0.00000000       0.27082098
Mn       0.00000000       0.00000000       5.00060606       0.00000000       0.00000000      -0.27082098
2
Properties=species:S:1:pos:R:3:forces:R:3 energy=-23.348413510102485 pbc="F F F"
Mn       0.00000000       0.00000000       0.00000000       0.00000000       0.00000000       0.24933846
Mn       0.00000000       0.00000000       5.05939394       0.00000000       0.00000000      -0.24933846
2
Properties=species:S:1:pos:R:3:forces:R:3 energy=-23.33444713617772 pbc="F F F"
Mn       0.00000000       0.00000000       0.00000000       0.00000000       0.00000000       0.22547616
Mn       0.00000000       0.00000000       5.11818182       0.00000000       0.00000000      -0.22547616
2
Properties=species:S:1:pos:R:3:forces:R:3 energy=-23.32191787295508 pbc="F F F"
Mn       0.00000000       0.00000000       0.00000000       0.00000000       0.00000000       0.20091909
Mn       0.00000000       0.00000000       5.17696970       0.00000000       0.00000000      -0.20091909
2
Properties=species:S:1:pos:R:3:forces:R:3 energy=-23.310788747140023 pbc="F F F"
Mn       0.00000000       0.00000000       0.00000000       0.00000000       0.00000000       0.17828421
Mn       0.00000000       0.00000000       5.23575758       0.00000000       0.00000000      -0.17828421
2
Properties=species:S:1:pos:R:3:forces:R:3 energy=-23.30086262675755 pbc="F F F"
Mn       0.00000000       0.00000000       0.00000000       0.00000000       0.00000000       0.16037565
Mn       0.00000000       0.00000000       5.29454545       0.00000000       0.00000000      -0.16037565
2
Properties=species:S:1:pos:R:3:forces:R:3 energy=-23.29182223745964 pbc="F F F"
Mn       0.00000000       0.00000000       0.00000000       0.00000000       0.00000000       0.14781962
Mn       0.00000000       0.00000000       5.35333333       0.00000000       0.00000000      -0.14781962
2
Properties=species:S:1:pos:R:3:forces:R:3 energy=-23.28348572189947 pbc="F F F"
Mn       0.00000000       0.00000000       0.00000000       0.00000000       0.00000000       0.13473372
Mn       0.00000000       0.00000000       5.41212121       0.00000000       0.00000000      -0.13473372
2
Properties=species:S:1:pos:R:3:forces:R:3 energy=-23.276212941420155 pbc="F F F"
Mn       0.00000000       0.00000000       0.00000000       0.00000000       0.00000000       0.11039881
Mn       0.00000000       0.00000000       5.47090909       0.00000000       0.00000000      -0.11039881
2
Properties=species:S:1:pos:R:3:forces:R:3 energy=-23.270607859975946 pbc="F F F"
Mn       0.00000000       0.00000000       0.00000000       0.00000000       0.00000000       0.08183815
Mn       0.00000000       0.00000000       5.52969697       0.00000000       0.00000000      -0.08183815
2
Properties=species:S:1:pos:R:3:forces:R:3 energy=-23.266196759449247 pbc="F F F"
Mn       0.00000000       0.00000000       0.00000000       0.00000000       0.00000000       0.07181942
Mn       0.00000000       0.00000000       5.58848485       0.00000000       0.00000000      -0.07181942
2
Properties=species:S:1:pos:R:3:forces:R:3 energy=-23.26194513588183 pbc="F F F"
Mn       0.00000000       0.00000000       0.00000000       0.00000000       0.00000000       0.07233548
Mn       0.00000000       0.00000000       5.64727273       0.00000000       0.00000000      -0.07233548
2
Properties=species:S:1:pos:R:3:forces:R:3 energy=-23.257989521348296 pbc="F F F"
Mn       0.00000000       0.00000000       0.00000000       0.00000000       0.00000000       0.05861568
Mn       0.00000000       0.00000000       5.70606061       0.00000000       0.00000000      -0.05861568
2
Properties=species:S:1:pos:R:3:forces:R:3 energy=-23.255393359170153 pbc="F F F"
Mn       0.00000000       0.00000000       0.00000000       0.00000000       0.00000000       0.02892269
Mn       0.00000000       0.00000000       5.76484848       0.00000000       0.00000000      -0.02892269
2
Properties=species:S:1:pos:R:3:forces:R:3 energy=-23.254338829492394 pbc="F F F"
Mn       0.00000000       0.00000000       0.00000000       0.00000000       0.00000000       0.01048522
Mn       0.00000000       0.00000000       5.82363636       0.00000000       0.00000000      -0.01048522
2
Properties=species:S:1:pos:R:3:forces:R:3 energy=-23.253840725605738 pbc="F F F"
Mn       0.00000000       0.00000000       0.00000000       0.00000000       0.00000000       0.00772978
Mn       0.00000000       0.00000000       5.88242424       0.00000000       0.00000000      -0.00772978
2
Properties=species:S:1:pos:R:3:forces:R:3 energy=-23.253398221030494 pbc="F F F"
Mn       0.00000000       0.00000000       0.00000000       0.00000000       0.00000000       0.00723276
Mn       0.00000000       0.00000000       5.94121212       0.00000000       0.00000000      -0.00723276
2
Properties=species:S:1:pos:R:3:forces:R:3 energy=-23.252991058779063 pbc="F F F"
Mn       0.00000000       0.00000000       0.00000000       0.00000000       0.00000000       0.00671905
Mn       0.00000000       0.00000000       6.00000000       0.00000000       0.00000000      -0.00671905
