2
Properties=species:S:1:pos:R:3:forces:R:3 energy=-2083.4175929091025 pbc="F F F"
N        0.00000000       0.00000000       0.00000000       0.00000000       0.00000000    5753.21630859
N        0.00000000       0.00000000       0.18000000       0.00000000       0.00000000   -5753.21630859
2
Properties=species:S:1:pos:R:3:forces:R:3 energy=-1381.5059718153527 pbc="F F F"
N        0.00000000       0.00000000       0.00000000       0.00000000       0.00000000   15671.60546875
N        0.00000000       0.00000000       0.23878788       0.00000000       0.00000000  -15671.60546875
2
Properties=species:S:1:pos:R:3:forces:R:3 energy=-9.284501935806343 pbc="F F F"
N        0.00000000       0.00000000       0.00000000       0.00000000       0.00000000   21187.80078125
N        0.00000000       0.00000000       0.29757576       0.00000000       0.00000000  -21187.80078125
2
Properties=species:S:1:pos:R:3:forces:R:3 energy=872.2302342401267 pbc="F F F"
N        0.00000000       0.00000000       0.00000000       0.00000000       0.00000000   -1035.01879883
N        0.00000000       0.00000000       0.35636364       0.00000000       0.00000000    1035.01879883
2
Properties=species:S:1:pos:R:3:forces:R:3 energy=501.4460240358406 pbc="F F F"
N        0.00000000       0.00000000       0.00000000       0.00000000       0.00000000   -5609.12011719
N        0.00000000       0.00000000       0.41515152       0.00000000       0.00000000    5609.12011719
2
Properties=species:S:1:pos:R:3:forces:R:3 energy=213.34531603079992 pbc="F F F"
N        0.00000000       0.00000000       0.00000000       0.00000000       0.00000000   -3305.38134766
N        0.00000000       0.00000000       0.47393939       0.00000000       0.00000000    3305.38134766
2
Properties=species:S:1:pos:R:3:forces:R:3 energy=81.71896563192766 pbc="F F F"
N        0.00000000       0.00000000       0.00000000       0.00000000       0.00000000   -1463.69323730
N        0.00000000       0.00000000       0.53272727       0.00000000       0.00000000    1463.69323730
2
Properties=species:S:1:pos:R:3:forces:R:3 energy=34.926302065034506 pbc="F F F"
N        0.00000000       0.00000000       0.00000000       0.00000000       0.00000000    -269.80755615
N        0.00000000       0.00000000       0.59151515       0.00000000       0.00000000     269.80755615
2
Properties=species:S:1:pos:R:3:forces:R:3 energy=24.155828597283193 pbc="F F F"
N        0.00000000       0.00000000       0.00000000       0.00000000       0.00000000     -88.58686829
N        0.00000000       0.00000000       0.65030303       0.00000000       0.00000000      88.58686829
2
Properties=species:S:1:pos:R:3:forces:R:3 energy=13.915227076480322 pbc="F F F"
N        0.00000000       0.00000000       0.00000000       0.00000000       0.00000000    -208.82756042
N        0.00000000       0.00000000       0.70909091       0.00000000       0.00000000     208.82756042
2
Properties=species:S:1:pos:R:3:forces:R:3 energy=3.1119243406921093 pbc="F F F"
N        0.00000000       0.00000000       0.00000000       0.00000000       0.00000000    -163.07208252
N        0.00000000       0.00000000       0.76787879       0.00000000       0.00000000     163.07208252
2
Properties=species:S:1:pos:R:3:forces:R:3 energy=-5.125733640772498 pbc="F F F"
N        0.00000000       0.00000000       0.00000000       0.00000000       0.00000000    -120.71203613
N        0.00000000       0.00000000       0.82666667       0.00000000       0.00000000     120.71203613
2
Properties=species:S:1:pos:R:3:forces:R:3 energy=-11.115669931766034 pbc="F F F"
N        0.00000000       0.00000000       0.00000000       0.00000000       0.00000000     -80.24933624
N        0.00000000       0.00000000       0.88545455       0.00000000       0.00000000      80.24933624
2
Properties=species:S:1:pos:R:3:forces:R:3 energy=-14.786899209316596 pbc="F F F"
N        0.00000000       0.00000000       0.00000000       0.00000000       0.00000000     -47.28576660
N        0.00000000       0.00000000       0.94424242       0.00000000       0.00000000      47.28576660
2
Properties=species:S:1:pos:R:3:forces:R:3 energy=-16.866118911410343 pbc="F F F"
N        0.00000000       0.00000000       0.00000000       0.00000000       0.00000000     -24.74709320
N        0.00000000       0.00000000       1.00303030       0.00000000       0.00000000      24.74709320
2
Properties=species:S:1:pos:R:3:forces:R:3 energy=-17.830285397026433 pbc="F F F"
N        0.00000000       0.00000000       0.00000000       0.00000000       0.00000000      -9.02498913
N        0.00000000       0.00000000       1.06181818       0.00000000       0.00000000       9.02498913
2
Properties=species:S:1:pos:R:3:forces:R:3 energy=-18.025014043624285 pbc="F F F"
N        0.00000000       0.00000000       0.00000000       0.00000000       0.00000000       1.67317367
N        0.00000000       0.00000000       1.12060606       0.00000000       0.00000000      -1.67317367
2
Properties=species:S:1:pos:R:3:forces:R:3 energy=-17.705773209438753 pbc="F F F"
N        0.00000000       0.00000000       0.00000000       0.00000000       0.00000000       8.74129963
N        0.00000000       0.00000000       1.17939394       0.00000000       0.00000000      -8.74129963
2
Properties=species:S:1:pos:R:3:forces:R:3 energy=-17.031666281490892 pbc="F F F"
N        0.00000000       0.00000000       0.00000000       0.00000000       0.00000000      13.95209789
N        0.00000000       0.00000000       1.23818182       0.00000000       0.00000000     -13.95209789
2
Properties=species:S:1:pos:R:3:forces:R:3 energy=-16.089290700823746 pbc="F F F"
N        0.00000000       0.00000000       0.00000000       0.00000000       0.00000000      18.01577377
N        0.00000000       0.00000000       1.29696970       0.00000000       0.00000000     -18.01577377
2
Properties=species:S:1:pos:R:3:forces:R:3 energy=-14.910035723884382 pbc="F F F"
N        0.00000000       0.00000000       0.00000000       0.00000000       0.00000000      22.15274048
N        0.00000000       0.00000000       1.35575758       0.00000000       0.00000000     -22.15274048
2
Properties=species:S:1:pos:R:3:forces:R:3 energy=-13.576220671890901 pbc="F F F"
N        0.00000000       0.00000000       0.00000000       0.00000000       0.00000000      20.89455223
N        0.00000000       0.00000000       1.41454545       0.00000000       0.00000000     -20.89455223
2
Properties=species:S:1:pos:R:3:forces:R:3 energy=-12.727172730908993 pbc="F F F"
N        0.00000000       0.00000000       0.00000000       0.00000000       0.00000000       8.31820869
N        0.00000000       0.00000000       1.47333333       0.00000000       0.00000000      -8.31820869
2
Properties=species:S:1:pos:R:3:forces:R:3 energy=-12.169884702808194 pbc="F F F"
N        0.00000000       0.00000000       0.00000000       0.00000000       0.00000000      14.30709362
N        0.00000000       0.00000000       1.53212121       0.00000000       0.00000000     -14.30709362
2
Properties=species:S:1:pos:R:3:forces:R:3 energy=-11.289735937965164 pbc="F F F"
N        0.00000000       0.00000000       0.00000000       0.00000000       0.00000000       8.25778770
N        0.00000000       0.00000000       1.59090909       0.00000000       0.00000000      -8.25778770
2
Properties=species:S:1:pos:R:3:forces:R:3 energy=-11.324152329651223 pbc="F F F"
N        0.00000000       0.00000000       0.00000000       0.00000000       0.00000000      -2.72260475
N        0.00000000       0.00000000       1.64969697       0.00000000       0.00000000       2.72260475
2
Properties=species:S:1:pos:R:3:forces:R:3 energy=-11.490986226526745 pbc="F F F"
N        0.00000000       0.00000000       0.00000000       0.00000000       0.00000000      -5.64820194
N        0.00000000       0.00000000       1.70848485       0.00000000       0.00000000       5.64820194
2
Properties=species:S:1:pos:R:3:forces:R:3 energy=-11.698329688536793 pbc="F F F"
N        0.00000000       0.00000000       0.00000000       0.00000000       0.00000000       2.40964842
N        0.00000000       0.00000000       1.76727273       0.00000000       0.00000000      -2.40964842
2
Properties=species:S:1:pos:R:3:forces:R:3 energy=-11.289975724888594 pbc="F F F"
N        0.00000000       0.00000000       0.00000000       0.00000000       0.00000000       8.23811531
N        0.00000000       0.00000000       1.82606061       0.00000000       0.00000000      -8.23811531
2
Properties=species:S:1:pos:R:3:forces:R:3 energy=-10.882024414209917 pbc="F F F"
N        0.00000000       0.00000000       0.00000000       0.00000000       0.00000000       5.62258339
N        0.00000000       0.00000000       1.88484848       0.00000000       0.00000000      -5.62258339
2
Properties=species:S:1:pos:R:3:forces:R:3 energy=-10.656427481959739 pbc="F F F"
N        0.00000000       0.00000000       0.00000000       0.00000000       0.00000000       2.09159946
N        0.00000000       0.00000000       1.94363636       0.00000000       0.00000000      -2.09159946
2
Properties=species:S:1:pos:R:3:forces:R:3 energy=-10.49986062212021 pbc="F F F"
N        0.00000000       0.00000000       0.00000000       0.00000000       0.00000000       4.95253325
N        0.00000000       0.00000000       2.00242424       0.00000000       0.00000000      -4.95253325
2
Properties=species:S:1:pos:R:3:forces:R:3 energy=-10.056125485345866 pbc="F F F"
N        0.00000000       0.00000000       0.00000000       0.00000000       0.00000000       8.57386017
N        0.00000000       0.00000000       2.06121212       0.00000000       0.00000000      -8.57386017
2
Properties=species:S:1:pos:R:3:forces:R:3 energy=-9.643082494381481 pbc="F F F"
N        0.00000000       0.00000000       0.00000000       0.00000000       0.00000000       5.24820375
N        0.00000000       0.00000000       2.12000000       0.00000000       0.00000000      -5.24820375
2
Properties=species:S:1:pos:R:3:forces:R:3 energy=-9.412743235012252 pbc="F F F"
N        0.00000000       0.00000000       0.00000000       0.00000000       0.00000000       2.80303383
N        0.00000000       0.00000000       2.17878788       0.00000000       0.00000000      -2.80303383
2
Properties=species:S:1:pos:R:3:forces:R:3 energy=-9.295562731283765 pbc="F F F"
N        0.00000000       0.00000000       0.00000000       0.00000000       0.00000000       1.34234011
N        0.00000000       0.00000000       2.23757576       0.00000000       0.00000000      -1.34234011
2
Properties=species:S:1:pos:R:3:forces:R:3 energy=-9.236570801676761 pbc="F F F"
N        0.00000000       0.00000000       0.00000000       0.00000000       0.00000000       0.78676105
N        0.00000000       0.00000000       2.29636364       0.00000000       0.00000000      -0.78676105
2
Properties=species:S:1:pos:R:3:forces:R:3 energy=-9.194546454965673 pbc="F F F"
N        0.00000000       0.00000000       0.00000000       0.00000000       0.00000000       0.67355680
N        0.00000000       0.00000000       2.35515152       0.00000000       0.00000000      -0.67355680
2
Properties=species:S:1:pos:R:3:forces:R:3 energy=-9.156360701352808 pbc="F F F"
N        0.00000000       0.00000000       0.00000000       0.00000000       0.00000000       0.62399691
N        0.00000000       0.00000000       2.41393939       0.00000000       0.00000000      -0.62399691
2
Properties=species:S:1:pos:R:3:forces:R:3 energy=-9.12134507988473 pbc="F F F"
N        0.00000000       0.00000000       0.00000000       0.00000000       0.00000000       0.56855088
N        0.00000000       0.00000000       2.47272727       0.00000000       0.00000000      -0.56855088
2
Properties=species:S:1:pos:R:3:forces:R:3 energy=-9.08904657150248 pbc="F F F"
N        0.00000000       0.00000000       0.00000000       0.00000000       0.00000000       0.53556508
N        0.00000000       0.00000000       2.53151515       0.00000000       0.00000000      -0.53556508
2
Properties=species:S:1:pos:R:3:forces:R:3 energy=-9.057837184653854 pbc="F F F"
N        0.00000000       0.00000000       0.00000000       0.00000000       0.00000000       0.52918488
N        0.00000000       0.00000000       2.59030303       0.00000000       0.00000000      -0.52918488
2
Properties=species:S:1:pos:R:3:forces:R:3 energy=-9.026713555953494 pbc="F F F"
N        0.00000000       0.00000000       0.00000000       0.00000000       0.00000000       0.52870709
N        0.00000000       0.00000000       2.64909091       0.00000000       0.00000000      -0.52870709
2
Properties=species:S:1:pos:R:3:forces:R:3 energy=-8.995931159244424 pbc="F F F"
N        0.00000000       0.00000000       0.00000000       0.00000000       0.00000000       0.51559728
N        0.00000000       0.00000000       2.70787879       0.00000000       0.00000000      -0.51559728
2
Properties=species:S:1:pos:R:3:forces:R:3 energy=-8.966450225571943 pbc="F F F"
N        0.00000000       0.00000000       0.00000000       0.00000000       0.00000000       0.48452559
N        0.00000000       0.00000000       2.76666667       0.00000000       0.00000000      -0.48452559
2
Properties=species:S:1:pos:R:3:forces:R:3 energy=-8.939223355200902 pbc="F F F"
N        0.00000000       0.00000000       0.00000000       0.00000000       0.00000000       0.44023433
N        0.00000000       0.00000000       2.82545455       0.00000000       0.00000000      -0.44023433
2
Properties=species:S:1:pos:R:3:forces:R:3 energy=-8.914790209397031 pbc="F F F"
N        0.00000000       0.00000000       0.00000000       0.00000000       0.00000000       0.39076209
N        0.00000000       0.00000000       2.88424242       0.00000000       0.00000000      -0.39076209
2
Properties=species:S:1:pos:R:3:forces:R:3 energy=-8.893250811901847 pbc="F F F"
N        0.00000000       0.00000000       0.00000000       0.00000000       0.00000000       0.34257841
N        0.00000000       0.00000000       2.94303030       0.00000000       0.00000000      -0.34257841
2
Properties=species:S:1:pos:R:3:forces:R:3 energy=-8.874424815711304 pbc="F F F"
N        0.00000000       0.00000000       0.00000000       0.00000000       0.00000000       0.29871032
N        0.00000000       0.00000000       3.00181818       0.00000000       0.00000000      -0.29871032
2
Properties=species:S:1:pos:R:3:forces:R:3 energy=-8.858045100545947 pbc="F F F"
N        0.00000000       0.00000000       0.00000000       0.00000000       0.00000000       0.25912565
N        0.00000000       0.00000000       3.06060606       0.00000000       0.00000000      -0.25912565
2
Properties=species:S:1:pos:R:3:forces:R:3 energy=-8.843908460718483 pbc="F F F"
N        0.00000000       0.00000000       0.00000000       0.00000000       0.00000000       0.22211556
N        0.00000000       0.00000000       3.11939394       0.00000000       0.00000000      -0.22211556
2
Properties=species:S:1:pos:R:3:forces:R:3 energy=-8.83191661273341 pbc="F F F"
N        0.00000000       0.00000000       0.00000000       0.00000000       0.00000000       0.18581016
N        0.00000000       0.00000000       3.17818182       0.00000000       0.00000000      -0.18581016
2
Properties=species:S:1:pos:R:3:forces:R:3 energy=-8.822069523328597 pbc="F F F"
N        0.00000000       0.00000000       0.00000000       0.00000000       0.00000000       0.14911924
N        0.00000000       0.00000000       3.23696970       0.00000000       0.00000000      -0.14911924
2
Properties=species:S:1:pos:R:3:forces:R:3 energy=-8.814391981304649 pbc="F F F"
N        0.00000000       0.00000000       0.00000000       0.00000000       0.00000000       0.11209954
N        0.00000000       0.00000000       3.29575758       0.00000000       0.00000000      -0.11209954
2
Properties=species:S:1:pos:R:3:forces:R:3 energy=-8.808874470311254 pbc="F F F"
N        0.00000000       0.00000000       0.00000000       0.00000000       0.00000000       0.07580619
N        0.00000000       0.00000000       3.35454545       0.00000000       0.00000000      -0.07580619
2
Properties=species:S:1:pos:R:3:forces:R:3 energy=-8.805432163623433 pbc="F F F"
N        0.00000000       0.00000000       0.00000000       0.00000000       0.00000000       0.04186108
N        0.00000000       0.00000000       3.41333333       0.00000000       0.00000000      -0.04186108
2
Properties=species:S:1:pos:R:3:forces:R:3 energy=-8.803873456254895 pbc="F F F"
N        0.00000000       0.00000000       0.00000000       0.00000000       0.00000000       0.01199159
N        0.00000000       0.00000000       3.47212121       0.00000000       0.00000000      -0.01199159
2
Properties=species:S:1:pos:R:3:forces:R:3 energy=-8.803914269280835 pbc="F F F"
N        0.00000000       0.00000000       0.00000000       0.00000000       0.00000000      -0.01236254
N        0.00000000       0.00000000       3.53090909       0.00000000       0.00000000       0.01236254
2
Properties=species:S:1:pos:R:3:forces:R:3 energy=-8.80520093703159 pbc="F F F"
N        0.00000000       0.00000000       0.00000000       0.00000000       0.00000000      -0.03030222
N        0.00000000       0.00000000       3.58969697       0.00000000       0.00000000       0.03030222
2
Properties=species:S:1:pos:R:3:forces:R:3 energy=-8.80734549838803 pbc="F F F"
N        0.00000000       0.00000000       0.00000000       0.00000000       0.00000000      -0.04156156
N        0.00000000       0.00000000       3.64848485       0.00000000       0.00000000       0.04156156
2
Properties=species:S:1:pos:R:3:forces:R:3 energy=-8.809962880180466 pbc="F F F"
N        0.00000000       0.00000000       0.00000000       0.00000000       0.00000000      -0.04651742
N        0.00000000       0.00000000       3.70727273       0.00000000       0.00000000       0.04651742
2
Properties=species:S:1:pos:R:3:forces:R:3 energy=-8.8127080956347 pbc="F F F"
N        0.00000000       0.00000000       0.00000000       0.00000000       0.00000000      -0.04606564
N        0.00000000       0.00000000       3.76606061       0.00000000       0.00000000       0.04606564
2
Properties=species:S:1:pos:R:3:forces:R:3 energy=-8.815298171357721 pbc="F F F"
N        0.00000000       0.00000000       0.00000000       0.00000000       0.00000000      -0.04144200
N        0.00000000       0.00000000       3.82484848       0.00000000       0.00000000       0.04144200
2
Properties=species:S:1:pos:R:3:forces:R:3 energy=-8.81752454055007 pbc="F F F"
N        0.00000000       0.00000000       0.00000000       0.00000000       0.00000000      -0.03398100
N        0.00000000       0.00000000       3.88363636       0.00000000       0.00000000       0.03398100
2
Properties=species:S:1:pos:R:3:forces:R:3 energy=-8.819261624688776 pbc="F F F"
N        0.00000000       0.00000000       0.00000000       0.00000000       0.00000000      -0.02489941
N        0.00000000       0.00000000       3.94242424       0.00000000       0.00000000       0.02489941
2
Properties=species:S:1:pos:R:3:forces:R:3 energy=-8.82044012173699 pbc="F F F"
N        0.00000000       0.00000000       0.00000000       0.00000000       0.00000000      -0.01515437
N        0.00000000       0.00000000       4.00121212       0.00000000       0.00000000       0.01515437
2
Properties=species:S:1:pos:R:3:forces:R:3 energy=-8.821043186496997 pbc="F F F"
N        0.00000000       0.00000000       0.00000000       0.00000000       0.00000000      -0.00542697
N        0.00000000       0.00000000       4.06000000       0.00000000       0.00000000       0.00542697
2
Properties=species:S:1:pos:R:3:forces:R:3 energy=-8.821089258928835 pbc="F F F"
N        0.00000000       0.00000000       0.00000000       0.00000000       0.00000000       0.00376955
N        0.00000000       0.00000000       4.11878788       0.00000000       0.00000000      -0.00376955
2
Properties=species:S:1:pos:R:3:forces:R:3 energy=-8.820620615108773 pbc="F F F"
N        0.00000000       0.00000000       0.00000000       0.00000000       0.00000000       0.01193921
N        0.00000000       0.00000000       4.17757576       0.00000000       0.00000000      -0.01193921
2
Properties=species:S:1:pos:R:3:forces:R:3 energy=-8.819716709067285 pbc="F F F"
N        0.00000000       0.00000000       0.00000000       0.00000000       0.00000000       0.01850886
N        0.00000000       0.00000000       4.23636364       0.00000000       0.00000000      -0.01850886
2
Properties=species:S:1:pos:R:3:forces:R:3 energy=-8.818488451535098 pbc="F F F"
N        0.00000000       0.00000000       0.00000000       0.00000000       0.00000000       0.02284261
N        0.00000000       0.00000000       4.29515152       0.00000000       0.00000000      -0.02284261
2
Properties=species:S:1:pos:R:3:forces:R:3 energy=-8.81708583349706 pbc="F F F"
N        0.00000000       0.00000000       0.00000000       0.00000000       0.00000000       0.02436222
N        0.00000000       0.00000000       4.35393939       0.00000000       0.00000000      -0.02436222
2
Properties=species:S:1:pos:R:3:forces:R:3 energy=-8.815685521694402 pbc="F F F"
N        0.00000000       0.00000000       0.00000000       0.00000000       0.00000000       0.02273194
N        0.00000000       0.00000000       4.41272727       0.00000000       0.00000000      -0.02273194
2
Properties=species:S:1:pos:R:3:forces:R:3 energy=-8.814474647250295 pbc="F F F"
N        0.00000000       0.00000000       0.00000000       0.00000000       0.00000000       0.01800650
N        0.00000000       0.00000000       4.47151515       0.00000000       0.00000000      -0.01800650
2
Properties=species:S:1:pos:R:3:forces:R:3 energy=-8.813620286606811 pbc="F F F"
N        0.00000000       0.00000000       0.00000000       0.00000000       0.00000000       0.01068170
N        0.00000000       0.00000000       4.53030303       0.00000000       0.00000000      -0.01068170
2
Properties=species:S:1:pos:R:3:forces:R:3 energy=-8.813252293605329 pbc="F F F"
N        0.00000000       0.00000000       0.00000000       0.00000000       0.00000000       0.00161573
N        0.00000000       0.00000000       4.58909091       0.00000000       0.00000000      -0.00161573
2
Properties=species:S:1:pos:R:3:forces:R:3 energy=-8.813443271929907 pbc="F F F"
N        0.00000000       0.00000000       0.00000000       0.00000000       0.00000000      -0.00811518
N        0.00000000       0.00000000       4.64787879       0.00000000       0.00000000       0.00811518
2
Properties=species:S:1:pos:R:3:forces:R:3 energy=-8.814198088946572 pbc="F F F"
N        0.00000000       0.00000000       0.00000000       0.00000000       0.00000000      -0.01742993
N        0.00000000       0.00000000       4.70666667       0.00000000       0.00000000       0.01742993
2
Properties=species:S:1:pos:R:3:forces:R:3 energy=-8.81546627049959 pbc="F F F"
N        0.00000000       0.00000000       0.00000000       0.00000000       0.00000000      -0.02539218
N        0.00000000       0.00000000       4.76545455       0.00000000       0.00000000       0.02539218
2
Properties=species:S:1:pos:R:3:forces:R:3 energy=-8.817143913407817 pbc="F F F"
N        0.00000000       0.00000000       0.00000000       0.00000000       0.00000000      -0.03134332
N        0.00000000       0.00000000       4.82424242       0.00000000       0.00000000       0.03134332
2
Properties=species:S:1:pos:R:3:forces:R:3 energy=-8.819104204824718 pbc="F F F"
N        0.00000000       0.00000000       0.00000000       0.00000000       0.00000000      -0.03494348
N        0.00000000       0.00000000       4.88303030       0.00000000       0.00000000       0.03494348
2
Properties=species:S:1:pos:R:3:forces:R:3 energy=-8.82120695878355 pbc="F F F"
N        0.00000000       0.00000000       0.00000000       0.00000000       0.00000000      -0.03621226
N        0.00000000       0.00000000       4.94181818       0.00000000       0.00000000       0.03621226
2
Properties=species:S:1:pos:R:3:forces:R:3 energy=-8.823322462807 pbc="F F F"
N        0.00000000       0.00000000       0.00000000       0.00000000       0.00000000      -0.03547002
N        0.00000000       0.00000000       5.00060606       0.00000000       0.00000000       0.03547002
2
Properties=species:S:1:pos:R:3:forces:R:3 energy=-8.825349600540536 pbc="F F F"
N        0.00000000       0.00000000       0.00000000       0.00000000       0.00000000      -0.03333617
N        0.00000000       0.00000000       5.05939394       0.00000000       0.00000000       0.03333617
2
Properties=species:S:1:pos:R:3:forces:R:3 energy=-8.82723301853357 pbc="F F F"
N        0.00000000       0.00000000       0.00000000       0.00000000       0.00000000      -0.03074291
N        0.00000000       0.00000000       5.11818182       0.00000000       0.00000000       0.03074291
2
Properties=species:S:1:pos:R:3:forces:R:3 energy=-8.828980294951013 pbc="F F F"
N        0.00000000       0.00000000       0.00000000       0.00000000       0.00000000      -0.02897029
N        0.00000000       0.00000000       5.17696970       0.00000000       0.00000000       0.02897029
2
Properties=species:S:1:pos:R:3:forces:R:3 energy=-8.83068673777834 pbc="F F F"
N        0.00000000       0.00000000       0.00000000       0.00000000       0.00000000      -0.02964192
N        0.00000000       0.00000000       5.23575758       0.00000000       0.00000000       0.02964192
2
Properties=species:S:1:pos:R:3:forces:R:3 energy=-8.832544922851692 pbc="F F F"
N        0.00000000       0.00000000       0.00000000       0.00000000       0.00000000      -0.03432820
N        0.00000000       0.00000000       5.29454545       0.00000000       0.00000000       0.03432820
2
Properties=species:S:1:pos:R:3:forces:R:3 energy=-8.834812271653464 pbc="F F F"
N        0.00000000       0.00000000       0.00000000       0.00000000       0.00000000      -0.04343325
N        0.00000000       0.00000000       5.35333333       0.00000000       0.00000000       0.04343325
2
Properties=species:S:1:pos:R:3:forces:R:3 energy=-8.837688026682017 pbc="F F F"
N        0.00000000       0.00000000       0.00000000       0.00000000       0.00000000      -0.05421684
N        0.00000000       0.00000000       5.41212121       0.00000000       0.00000000       0.05421684
2
Properties=species:S:1:pos:R:3:forces:R:3 energy=-8.841086280478686 pbc="F F F"
N        0.00000000       0.00000000       0.00000000       0.00000000       0.00000000      -0.05990576
N        0.00000000       0.00000000       5.47090909       0.00000000       0.00000000       0.05990576
2
Properties=species:S:1:pos:R:3:forces:R:3 energy=-8.844522487839653 pbc="F F F"
N        0.00000000       0.00000000       0.00000000       0.00000000       0.00000000      -0.05530177
N        0.00000000       0.00000000       5.52969697       0.00000000       0.00000000       0.05530177
2
Properties=species:S:1:pos:R:3:forces:R:3 energy=-8.847458697452897 pbc="F F F"
N        0.00000000       0.00000000       0.00000000       0.00000000       0.00000000      -0.04419811
N        0.00000000       0.00000000       5.58848485       0.00000000       0.00000000       0.04419811
2
Properties=species:S:1:pos:R:3:forces:R:3 energy=-8.849755595157589 pbc="F F F"
N        0.00000000       0.00000000       0.00000000       0.00000000       0.00000000      -0.03485027
N        0.00000000       0.00000000       5.64727273       0.00000000       0.00000000       0.03485027
2
Properties=species:S:1:pos:R:3:forces:R:3 energy=-8.851659151266222 pbc="F F F"
N        0.00000000       0.00000000       0.00000000       0.00000000       0.00000000      -0.03030860
N        0.00000000       0.00000000       5.70606061       0.00000000       0.00000000       0.03030860
2
Properties=species:S:1:pos:R:3:forces:R:3 energy=-8.853262749883568 pbc="F F F"
N        0.00000000       0.00000000       0.00000000       0.00000000       0.00000000      -0.02306294
N        0.00000000       0.00000000       5.76484848       0.00000000       0.00000000       0.02306294
2
Properties=species:S:1:pos:R:3:forces:R:3 energy=-8.8542802157558 pbc="F F F"
N        0.00000000       0.00000000       0.00000000       0.00000000       0.00000000      -0.01152833
N        0.00000000       0.00000000       5.82363636       0.00000000       0.00000000       0.01152833
2
Properties=species:S:1:pos:R:3:forces:R:3 energy=-8.854690496326485 pbc="F F F"
N        0.00000000       0.00000000       0.00000000       0.00000000       0.00000000      -0.00342671
N        0.00000000       0.00000000       5.88242424       0.00000000       0.00000000       0.00342671
2
Properties=species:S:1:pos:R:3:forces:R:3 energy=-8.854784393263003 pbc="F F F"
N        0.00000000       0.00000000       0.00000000       0.00000000       0.00000000      -0.00035934
N        0.00000000       0.00000000       5.94121212       0.00000000       0.00000000       0.00035934
2
Properties=species:S:1:pos:R:3:forces:R:3 energy=-8.85477832482862 pbc="F F F"
N        0.00000000       0.00000000       0.00000000       0.00000000       0.00000000       0.00030492
N        0.00000000       0.00000000       6.00000000       0.00000000       0.00000000      -0.00030492
