2
Properties=species:S:1:pos:R:3:forces:R:3 energy=4199.099055409028 pbc="F F F"
Na       0.00000000       0.00000000       0.00000000       0.00000000       0.00000000  -72192.47656250
Na       0.00000000       0.00000000       0.10000000       0.00000000       0.00000000   72192.47656250
2
Properties=species:S:1:pos:R:3:forces:R:3 energy=1902.0592604871524 pbc="F F F"
Na       0.00000000       0.00000000       0.00000000       0.00000000       0.00000000  -19179.72265625
Na       0.00000000       0.00000000       0.15959596       0.00000000       0.00000000   19179.72265625
2
Properties=species:S:1:pos:R:3:forces:R:3 energy=1190.947077869965 pbc="F F F"
Na       0.00000000       0.00000000       0.00000000       0.00000000       0.00000000   -7170.45556641
Na       0.00000000       0.00000000       0.21919192       0.00000000       0.00000000    7170.45556641
2
Properties=species:S:1:pos:R:3:forces:R:3 energy=890.9130812879336 pbc="F F F"
Na       0.00000000       0.00000000       0.00000000       0.00000000       0.00000000   -3579.08813477
Na       0.00000000       0.00000000       0.27878788       0.00000000       0.00000000    3579.08813477
2
Properties=species:S:1:pos:R:3:forces:R:3 energy=715.4518386121523 pbc="F F F"
Na       0.00000000       0.00000000       0.00000000       0.00000000       0.00000000   -2554.09814453
Na       0.00000000       0.00000000       0.33838384       0.00000000       0.00000000    2554.09814453
2
Properties=species:S:1:pos:R:3:forces:R:3 energy=567.7533522840273 pbc="F F F"
Na       0.00000000       0.00000000       0.00000000       0.00000000       0.00000000   -2495.06469727
Na       0.00000000       0.00000000       0.39797980       0.00000000       0.00000000    2495.06469727
2
Properties=species:S:1:pos:R:3:forces:R:3 energy=412.79403221606395 pbc="F F F"
Na       0.00000000       0.00000000       0.00000000       0.00000000       0.00000000   -2704.89282227
Na       0.00000000       0.00000000       0.45757576       0.00000000       0.00000000    2704.89282227
2
Properties=species:S:1:pos:R:3:forces:R:3 energy=250.4335128072802 pbc="F F F"
Na       0.00000000       0.00000000       0.00000000       0.00000000       0.00000000   -2663.12744141
Na       0.00000000       0.00000000       0.51717172       0.00000000       0.00000000    2663.12744141
2
Properties=species:S:1:pos:R:3:forces:R:3 energy=107.6304656278964 pbc="F F F"
Na       0.00000000       0.00000000       0.00000000       0.00000000       0.00000000   -2041.30725098
Na       0.00000000       0.00000000       0.57676768       0.00000000       0.00000000    2041.30725098
2
Properties=species:S:1:pos:R:3:forces:R:3 energy=30.257847907922688 pbc="F F F"
Na       0.00000000       0.00000000       0.00000000       0.00000000       0.00000000    -232.26524353
Na       0.00000000       0.00000000       0.63636364       0.00000000       0.00000000     232.26524353
2
Properties=species:S:1:pos:R:3:forces:R:3 energy=23.760934000386445 pbc="F F F"
Na       0.00000000       0.00000000       0.00000000       0.00000000       0.00000000    -100.41274261
Na       0.00000000       0.00000000       0.69595960       0.00000000       0.00000000     100.41274261
2
Properties=species:S:1:pos:R:3:forces:R:3 energy=17.709538588482435 pbc="F F F"
Na       0.00000000       0.00000000       0.00000000       0.00000000       0.00000000     -94.35405731
Na       0.00000000       0.00000000       0.75555556       0.00000000       0.00000000      94.35405731
2
Properties=species:S:1:pos:R:3:forces:R:3 energy=12.960093632082293 pbc="F F F"
Na       0.00000000       0.00000000       0.00000000       0.00000000       0.00000000     -64.82402039
Na       0.00000000       0.00000000       0.81515152       0.00000000       0.00000000      64.82402039
2
Properties=species:S:1:pos:R:3:forces:R:3 energy=9.772616528977398 pbc="F F F"
Na       0.00000000       0.00000000       0.00000000       0.00000000       0.00000000     -54.08468628
Na       0.00000000       0.00000000       0.87474747       0.00000000       0.00000000      54.08468628
2
Properties=species:S:1:pos:R:3:forces:R:3 energy=6.542054807214904 pbc="F F F"
Na       0.00000000       0.00000000       0.00000000       0.00000000       0.00000000     -47.22143555
Na       0.00000000       0.00000000       0.93434343       0.00000000       0.00000000      47.22143555
2
Properties=species:S:1:pos:R:3:forces:R:3 energy=4.216039351037883 pbc="F F F"
Na       0.00000000       0.00000000       0.00000000       0.00000000       0.00000000     -32.82466507
Na       0.00000000       0.00000000       0.99393939       0.00000000       0.00000000      32.82466507
2
Properties=species:S:1:pos:R:3:forces:R:3 energy=2.459003640151395 pbc="F F F"
Na       0.00000000       0.00000000       0.00000000       0.00000000       0.00000000     -26.06195068
Na       0.00000000       0.00000000       1.05353535       0.00000000       0.00000000      26.06195068
2
Properties=species:S:1:pos:R:3:forces:R:3 energy=1.1183397595416407 pbc="F F F"
Na       0.00000000       0.00000000       0.00000000       0.00000000       0.00000000     -19.25486565
Na       0.00000000       0.00000000       1.11313131       0.00000000       0.00000000      19.25486565
2
Properties=species:S:1:pos:R:3:forces:R:3 energy=0.11431052317271231 pbc="F F F"
Na       0.00000000       0.00000000       0.00000000       0.00000000       0.00000000     -14.77354336
Na       0.00000000       0.00000000       1.17272727       0.00000000       0.00000000      14.77354336
2
Properties=species:S:1:pos:R:3:forces:R:3 energy=-0.6722957395241401 pbc="F F F"
Na       0.00000000       0.00000000       0.00000000       0.00000000       0.00000000     -11.82387829
Na       0.00000000       0.00000000       1.23232323       0.00000000       0.00000000      11.82387829
2
Properties=species:S:1:pos:R:3:forces:R:3 energy=-1.312705384982724 pbc="F F F"
Na       0.00000000       0.00000000       0.00000000       0.00000000       0.00000000      -9.74928570
Na       0.00000000       0.00000000       1.29191919       0.00000000       0.00000000       9.74928570
2
Properties=species:S:1:pos:R:3:forces:R:3 energy=-1.8352301390703918 pbc="F F F"
Na       0.00000000       0.00000000       0.00000000       0.00000000       0.00000000      -7.73473549
Na       0.00000000       0.00000000       1.35151515       0.00000000       0.00000000       7.73473549
2
Properties=species:S:1:pos:R:3:forces:R:3 energy=-2.227043556692771 pbc="F F F"
Na       0.00000000       0.00000000       0.00000000       0.00000000       0.00000000      -5.37685728
Na       0.00000000       0.00000000       1.41111111       0.00000000       0.00000000       5.37685728
2
Properties=species:S:1:pos:R:3:forces:R:3 energy=-2.47934870238904 pbc="F F F"
Na       0.00000000       0.00000000       0.00000000       0.00000000       0.00000000      -3.18719339
Na       0.00000000       0.00000000       1.47070707       0.00000000       0.00000000       3.18719339
2
Properties=species:S:1:pos:R:3:forces:R:3 energy=-2.624922643990523 pbc="F F F"
Na       0.00000000       0.00000000       0.00000000       0.00000000       0.00000000      -1.88516438
Na       0.00000000       0.00000000       1.53030303       0.00000000       0.00000000       1.88516438
2
Properties=species:S:1:pos:R:3:forces:R:3 energy=-2.7268855018858176 pbc="F F F"
Na       0.00000000       0.00000000       0.00000000       0.00000000       0.00000000      -1.71016645
Na       0.00000000       0.00000000       1.58989899       0.00000000       0.00000000       1.71016645
2
Properties=species:S:1:pos:R:3:forces:R:3 energy=-2.8438126623006457 pbc="F F F"
Na       0.00000000       0.00000000       0.00000000       0.00000000       0.00000000      -2.28231740
Na       0.00000000       0.00000000       1.64949495       0.00000000       0.00000000       2.28231740
2
Properties=species:S:1:pos:R:3:forces:R:3 energy=-3.00060312558121 pbc="F F F"
Na       0.00000000       0.00000000       0.00000000       0.00000000       0.00000000      -2.95219040
Na       0.00000000       0.00000000       1.70909091       0.00000000       0.00000000       2.95219040
2
Properties=species:S:1:pos:R:3:forces:R:3 energy=-3.1902924386938194 pbc="F F F"
Na       0.00000000       0.00000000       0.00000000       0.00000000       0.00000000      -3.36318874
Na       0.00000000       0.00000000       1.76868687       0.00000000       0.00000000       3.36318874
2
Properties=species:S:1:pos:R:3:forces:R:3 energy=-3.396198444947227 pbc="F F F"
Na       0.00000000       0.00000000       0.00000000       0.00000000       0.00000000      -3.51201105
Na       0.00000000       0.00000000       1.82828283       0.00000000       0.00000000       3.51201105
2
Properties=species:S:1:pos:R:3:forces:R:3 energy=-3.6058816462652983 pbc="F F F"
Na       0.00000000       0.00000000       0.00000000       0.00000000       0.00000000      -3.50744390
Na       0.00000000       0.00000000       1.88787879       0.00000000       0.00000000       3.50744390
2
Properties=species:S:1:pos:R:3:forces:R:3 energy=-3.8127702642221664 pbc="F F F"
Na       0.00000000       0.00000000       0.00000000       0.00000000       0.00000000      -3.42600036
Na       0.00000000       0.00000000       1.94747475       0.00000000       0.00000000       3.42600036
2
Properties=species:S:1:pos:R:3:forces:R:3 energy=-4.013167843704196 pbc="F F F"
Na       0.00000000       0.00000000       0.00000000       0.00000000       0.00000000      -3.29017878
Na       0.00000000       0.00000000       2.00707071       0.00000000       0.00000000       3.29017878
2
Properties=species:S:1:pos:R:3:forces:R:3 energy=-4.203825206019971 pbc="F F F"
Na       0.00000000       0.00000000       0.00000000       0.00000000       0.00000000      -3.09899950
Na       0.00000000       0.00000000       2.06666667       0.00000000       0.00000000       3.09899950
2
Properties=species:S:1:pos:R:3:forces:R:3 energy=-4.381534416516389 pbc="F F F"
Na       0.00000000       0.00000000       0.00000000       0.00000000       0.00000000      -2.85755944
Na       0.00000000       0.00000000       2.12626263       0.00000000       0.00000000       2.85755944
2
Properties=species:S:1:pos:R:3:forces:R:3 energy=-4.543772995539179 pbc="F F F"
Na       0.00000000       0.00000000       0.00000000       0.00000000       0.00000000      -2.58344817
Na       0.00000000       0.00000000       2.18585859       0.00000000       0.00000000       2.58344817
2
Properties=species:S:1:pos:R:3:forces:R:3 energy=-4.689249656976549 pbc="F F F"
Na       0.00000000       0.00000000       0.00000000       0.00000000       0.00000000      -2.29852509
Na       0.00000000       0.00000000       2.24545455       0.00000000       0.00000000       2.29852509
2
Properties=species:S:1:pos:R:3:forces:R:3 energy=-4.817899067010226 pbc="F F F"
Na       0.00000000       0.00000000       0.00000000       0.00000000       0.00000000      -2.02144623
Na       0.00000000       0.00000000       2.30505051       0.00000000       0.00000000       2.02144623
2
Properties=species:S:1:pos:R:3:forces:R:3 energy=-4.9306110029854615 pbc="F F F"
Na       0.00000000       0.00000000       0.00000000       0.00000000       0.00000000      -1.76545274
Na       0.00000000       0.00000000       2.36464646       0.00000000       0.00000000       1.76545274
2
Properties=species:S:1:pos:R:3:forces:R:3 energy=-5.028901339731648 pbc="F F F"
Na       0.00000000       0.00000000       0.00000000       0.00000000       0.00000000      -1.53821242
Na       0.00000000       0.00000000       2.42424242       0.00000000       0.00000000       1.53821242
2
Properties=species:S:1:pos:R:3:forces:R:3 energy=-5.114566825003475 pbc="F F F"
Na       0.00000000       0.00000000       0.00000000       0.00000000       0.00000000      -1.34160686
Na       0.00000000       0.00000000       2.48383838       0.00000000       0.00000000       1.34160686
2
Properties=species:S:1:pos:R:3:forces:R:3 energy=-5.189353691911168 pbc="F F F"
Na       0.00000000       0.00000000       0.00000000       0.00000000       0.00000000      -1.17223692
Na       0.00000000       0.00000000       2.54343434       0.00000000       0.00000000       1.17223692
2
Properties=species:S:1:pos:R:3:forces:R:3 energy=-5.254695405215106 pbc="F F F"
Na       0.00000000       0.00000000       0.00000000       0.00000000       0.00000000      -1.02341938
Na       0.00000000       0.00000000       2.60303030       0.00000000       0.00000000       1.02341938
2
Properties=species:S:1:pos:R:3:forces:R:3 energy=-5.311603489771233 pbc="F F F"
Na       0.00000000       0.00000000       0.00000000       0.00000000       0.00000000      -0.88809949
Na       0.00000000       0.00000000       2.66262626       0.00000000       0.00000000       0.88809949
2
Properties=species:S:1:pos:R:3:forces:R:3 energy=-5.360715716822597 pbc="F F F"
Na       0.00000000       0.00000000       0.00000000       0.00000000       0.00000000      -0.76122952
Na       0.00000000       0.00000000       2.72222222       0.00000000       0.00000000       0.76122952
2
Properties=species:S:1:pos:R:3:forces:R:3 energy=-5.402461122522234 pbc="F F F"
Na       0.00000000       0.00000000       0.00000000       0.00000000       0.00000000      -0.64074314
Na       0.00000000       0.00000000       2.78181818       0.00000000       0.00000000       0.64074314
2
Properties=species:S:1:pos:R:3:forces:R:3 energy=-5.437224577337355 pbc="F F F"
Na       0.00000000       0.00000000       0.00000000       0.00000000       0.00000000      -0.52723557
Na       0.00000000       0.00000000       2.84141414       0.00000000       0.00000000       0.52723557
2
Properties=species:S:1:pos:R:3:forces:R:3 energy=-5.465484665639928 pbc="F F F"
Na       0.00000000       0.00000000       0.00000000       0.00000000       0.00000000      -0.42287830
Na       0.00000000       0.00000000       2.90101010       0.00000000       0.00000000       0.42287830
2
Properties=species:S:1:pos:R:3:forces:R:3 energy=-5.487859592746529 pbc="F F F"
Na       0.00000000       0.00000000       0.00000000       0.00000000       0.00000000      -0.33012697
Na       0.00000000       0.00000000       2.96060606       0.00000000       0.00000000       0.33012697
2
Properties=species:S:1:pos:R:3:forces:R:3 energy=-5.505098328940887 pbc="F F F"
Na       0.00000000       0.00000000       0.00000000       0.00000000       0.00000000      -0.25068387
Na       0.00000000       0.00000000       3.02020202       0.00000000       0.00000000       0.25068387
2
Properties=species:S:1:pos:R:3:forces:R:3 energy=-5.5180127512137656 pbc="F F F"
Na       0.00000000       0.00000000       0.00000000       0.00000000       0.00000000      -0.18498559
Na       0.00000000       0.00000000       3.07979798       0.00000000       0.00000000       0.18498559
2
Properties=species:S:1:pos:R:3:forces:R:3 energy=-5.527403862512268 pbc="F F F"
Na       0.00000000       0.00000000       0.00000000       0.00000000       0.00000000      -0.13220575
Na       0.00000000       0.00000000       3.13939394       0.00000000       0.00000000       0.13220575
2
Properties=species:S:1:pos:R:3:forces:R:3 energy=-5.53399321335236 pbc="F F F"
Na       0.00000000       0.00000000       0.00000000       0.00000000       0.00000000      -0.09060035
Na       0.00000000       0.00000000       3.19898990       0.00000000       0.00000000       0.09060035
2
Properties=species:S:1:pos:R:3:forces:R:3 energy=-5.538379990906664 pbc="F F F"
Na       0.00000000       0.00000000       0.00000000       0.00000000       0.00000000      -0.05788739
Na       0.00000000       0.00000000       3.25858586       0.00000000       0.00000000       0.05788739
2
Properties=species:S:1:pos:R:3:forces:R:3 energy=-5.541020183329845 pbc="F F F"
Na       0.00000000       0.00000000       0.00000000       0.00000000       0.00000000      -0.03159375
Na       0.00000000       0.00000000       3.31818182       0.00000000       0.00000000       0.03159375
2
Properties=species:S:1:pos:R:3:forces:R:3 energy=-5.542226725627334 pbc="F F F"
Na       0.00000000       0.00000000       0.00000000       0.00000000       0.00000000      -0.00940477
Na       0.00000000       0.00000000       3.37777778       0.00000000       0.00000000       0.00940477
2
Properties=species:S:1:pos:R:3:forces:R:3 energy=-5.542187753449446 pbc="F F F"
Na       0.00000000       0.00000000       0.00000000       0.00000000       0.00000000       0.01040687
Na       0.00000000       0.00000000       3.43737374       0.00000000       0.00000000      -0.01040687
2
Properties=species:S:1:pos:R:3:forces:R:3 energy=-5.541018066869018 pbc="F F F"
Na       0.00000000       0.00000000       0.00000000       0.00000000       0.00000000       0.02858211
Na       0.00000000       0.00000000       3.49696970       0.00000000       0.00000000      -0.02858211
2
Properties=species:S:1:pos:R:3:forces:R:3 energy=-5.5388190215250654 pbc="F F F"
Na       0.00000000       0.00000000       0.00000000       0.00000000       0.00000000       0.04483817
Na       0.00000000       0.00000000       3.55656566       0.00000000       0.00000000      -0.04483817
2
Properties=species:S:1:pos:R:3:forces:R:3 energy=-5.53572075821345 pbc="F F F"
Na       0.00000000       0.00000000       0.00000000       0.00000000       0.00000000       0.05880863
Na       0.00000000       0.00000000       3.61616162       0.00000000       0.00000000      -0.05880863
2
Properties=species:S:1:pos:R:3:forces:R:3 energy=-5.531821842288335 pbc="F F F"
Na       0.00000000       0.00000000       0.00000000       0.00000000       0.00000000       0.07232006
Na       0.00000000       0.00000000       3.67575758       0.00000000       0.00000000      -0.07232006
2
Properties=species:S:1:pos:R:3:forces:R:3 energy=-5.526998441358033 pbc="F F F"
Na       0.00000000       0.00000000       0.00000000       0.00000000       0.00000000       0.09099793
Na       0.00000000       0.00000000       3.73535354       0.00000000       0.00000000      -0.09099793
2
Properties=species:S:1:pos:R:3:forces:R:3 energy=-5.520749135102036 pbc="F F F"
Na       0.00000000       0.00000000       0.00000000       0.00000000       0.00000000       0.12085794
Na       0.00000000       0.00000000       3.79494949       0.00000000       0.00000000      -0.12085794
2
Properties=species:S:1:pos:R:3:forces:R:3 energy=-5.51236010674076 pbc="F F F"
Na       0.00000000       0.00000000       0.00000000       0.00000000       0.00000000       0.16225848
Na       0.00000000       0.00000000       3.85454545       0.00000000       0.00000000      -0.16225848
2
Properties=species:S:1:pos:R:3:forces:R:3 energy=-5.501282169329923 pbc="F F F"
Na       0.00000000       0.00000000       0.00000000       0.00000000       0.00000000       0.21005222
Na       0.00000000       0.00000000       3.91414141       0.00000000       0.00000000      -0.21005222
2
Properties=species:S:1:pos:R:3:forces:R:3 energy=-5.487309466277158 pbc="F F F"
Na       0.00000000       0.00000000       0.00000000       0.00000000       0.00000000       0.25863069
Na       0.00000000       0.00000000       3.97373737       0.00000000       0.00000000      -0.25863069
2
Properties=species:S:1:pos:R:3:forces:R:3 energy=-5.470508980288023 pbc="F F F"
Na       0.00000000       0.00000000       0.00000000       0.00000000       0.00000000       0.30457333
Na       0.00000000       0.00000000       4.03333333       0.00000000       0.00000000      -0.30457333
2
Properties=species:S:1:pos:R:3:forces:R:3 energy=-5.45109369213253 pbc="F F F"
Na       0.00000000       0.00000000       0.00000000       0.00000000       0.00000000       0.34617424
Na       0.00000000       0.00000000       4.09292929       0.00000000       0.00000000      -0.34617424
2
Properties=species:S:1:pos:R:3:forces:R:3 energy=-5.429354902682556 pbc="F F F"
Na       0.00000000       0.00000000       0.00000000       0.00000000       0.00000000       0.38237199
Na       0.00000000       0.00000000       4.15252525       0.00000000       0.00000000      -0.38237199
2
Properties=species:S:1:pos:R:3:forces:R:3 energy=-5.405644188611849 pbc="F F F"
Na       0.00000000       0.00000000       0.00000000       0.00000000       0.00000000       0.41220981
Na       0.00000000       0.00000000       4.21212121       0.00000000       0.00000000      -0.41220981
2
Properties=species:S:1:pos:R:3:forces:R:3 energy=-5.380367797399702 pbc="F F F"
Na       0.00000000       0.00000000       0.00000000       0.00000000       0.00000000       0.43474254
Na       0.00000000       0.00000000       4.27171717       0.00000000       0.00000000      -0.43474254
2
Properties=species:S:1:pos:R:3:forces:R:3 energy=-5.353988160430984 pbc="F F F"
Na       0.00000000       0.00000000       0.00000000       0.00000000       0.00000000       0.44914678
Na       0.00000000       0.00000000       4.33131313       0.00000000       0.00000000      -0.44914678
2
Properties=species:S:1:pos:R:3:forces:R:3 energy=-5.327006015827644 pbc="F F F"
Na       0.00000000       0.00000000       0.00000000       0.00000000       0.00000000       0.45488328
Na       0.00000000       0.00000000       4.39090909       0.00000000       0.00000000      -0.45488328
2
Properties=species:S:1:pos:R:3:forces:R:3 energy=-5.299943930433151 pbc="F F F"
Na       0.00000000       0.00000000       0.00000000       0.00000000       0.00000000       0.45184615
Na       0.00000000       0.00000000       4.45050505       0.00000000       0.00000000      -0.45184615
2
Properties=species:S:1:pos:R:3:forces:R:3 energy=-5.2733154884915 pbc="F F F"
Na       0.00000000       0.00000000       0.00000000       0.00000000       0.00000000       0.44047278
Na       0.00000000       0.00000000       4.51010101       0.00000000       0.00000000      -0.44047278
2
Properties=species:S:1:pos:R:3:forces:R:3 energy=-5.247588769607464 pbc="F F F"
Na       0.00000000       0.00000000       0.00000000       0.00000000       0.00000000       0.42175931
Na       0.00000000       0.00000000       4.56969697       0.00000000       0.00000000      -0.42175931
2
Properties=species:S:1:pos:R:3:forces:R:3 energy=-5.223161397671389 pbc="F F F"
Na       0.00000000       0.00000000       0.00000000       0.00000000       0.00000000       0.39718935
Na       0.00000000       0.00000000       4.62929293       0.00000000       0.00000000      -0.39718935
2
Properties=species:S:1:pos:R:3:forces:R:3 energy=-5.200328690812224 pbc="F F F"
Na       0.00000000       0.00000000       0.00000000       0.00000000       0.00000000       0.36855602
Na       0.00000000       0.00000000       4.68888889       0.00000000       0.00000000      -0.36855602
2
Properties=species:S:1:pos:R:3:forces:R:3 energy=-5.179276305939684 pbc="F F F"
Na       0.00000000       0.00000000       0.00000000       0.00000000       0.00000000       0.33772618
Na       0.00000000       0.00000000       4.74848485       0.00000000       0.00000000      -0.33772618
2
Properties=species:S:1:pos:R:3:forces:R:3 energy=-5.160083508416256 pbc="F F F"
Na       0.00000000       0.00000000       0.00000000       0.00000000       0.00000000       0.30643907
Na       0.00000000       0.00000000       4.80808081       0.00000000       0.00000000      -0.30643907
2
Properties=species:S:1:pos:R:3:forces:R:3 energy=-5.142730284936872 pbc="F F F"
Na       0.00000000       0.00000000       0.00000000       0.00000000       0.00000000       0.27618390
Na       0.00000000       0.00000000       4.86767677       0.00000000       0.00000000      -0.27618390
2
Properties=species:S:1:pos:R:3:forces:R:3 energy=-5.127118428901995 pbc="F F F"
Na       0.00000000       0.00000000       0.00000000       0.00000000       0.00000000       0.24820083
Na       0.00000000       0.00000000       4.92727273       0.00000000       0.00000000      -0.24820083
2
Properties=species:S:1:pos:R:3:forces:R:3 energy=-5.1130808284068285 pbc="F F F"
Na       0.00000000       0.00000000       0.00000000       0.00000000       0.00000000       0.22352807
Na       0.00000000       0.00000000       4.98686869       0.00000000       0.00000000      -0.22352807
2
Properties=species:S:1:pos:R:3:forces:R:3 energy=-5.10039393686733 pbc="F F F"
Na       0.00000000       0.00000000       0.00000000       0.00000000       0.00000000       0.20302068
Na       0.00000000       0.00000000       5.04646465       0.00000000       0.00000000      -0.20302068
2
Properties=species:S:1:pos:R:3:forces:R:3 energy=-5.0887892931397465 pbc="F F F"
Na       0.00000000       0.00000000       0.00000000       0.00000000       0.00000000       0.18722269
Na       0.00000000       0.00000000       5.10606061       0.00000000       0.00000000      -0.18722269
2
Properties=species:S:1:pos:R:3:forces:R:3 energy=-5.077983628785841 pbc="F F F"
Na       0.00000000       0.00000000       0.00000000       0.00000000       0.00000000       0.17607474
Na       0.00000000       0.00000000       5.16565657       0.00000000       0.00000000      -0.17607474
2
Properties=species:S:1:pos:R:3:forces:R:3 energy=-5.067731345502876 pbc="F F F"
Na       0.00000000       0.00000000       0.00000000       0.00000000       0.00000000       0.16841592
Na       0.00000000       0.00000000       5.22525253       0.00000000       0.00000000      -0.16841592
2
Properties=species:S:1:pos:R:3:forces:R:3 energy=-5.057895115533427 pbc="F F F"
Na       0.00000000       0.00000000       0.00000000       0.00000000       0.00000000       0.16150716
Na       0.00000000       0.00000000       5.28484848       0.00000000       0.00000000      -0.16150716
2
Properties=species:S:1:pos:R:3:forces:R:3 energy=-5.048536494980635 pbc="F F F"
Na       0.00000000       0.00000000       0.00000000       0.00000000       0.00000000       0.15190969
Na       0.00000000       0.00000000       5.34444444       0.00000000       0.00000000      -0.15190969
2
Properties=species:S:1:pos:R:3:forces:R:3 energy=-5.039837240925377 pbc="F F F"
Na       0.00000000       0.00000000       0.00000000       0.00000000       0.00000000       0.14020732
Na       0.00000000       0.00000000       5.40404040       0.00000000       0.00000000      -0.14020732
2
Properties=species:S:1:pos:R:3:forces:R:3 energy=-5.031688296802826 pbc="F F F"
Na       0.00000000       0.00000000       0.00000000       0.00000000       0.00000000       0.13513011
Na       0.00000000       0.00000000       5.46363636       0.00000000       0.00000000      -0.13513011
2
Properties=species:S:1:pos:R:3:forces:R:3 energy=-5.023536236582305 pbc="F F F"
Na       0.00000000       0.00000000       0.00000000       0.00000000       0.00000000       0.13909782
Na       0.00000000       0.00000000       5.52323232       0.00000000       0.00000000      -0.13909782
2
Properties=species:S:1:pos:R:3:forces:R:3 energy=-5.015251114730867 pbc="F F F"
Na       0.00000000       0.00000000       0.00000000       0.00000000       0.00000000       0.13658220
Na       0.00000000       0.00000000       5.58282828       0.00000000       0.00000000      -0.13658220
2
Properties=species:S:1:pos:R:3:forces:R:3 energy=-5.007498817429139 pbc="F F F"
Na       0.00000000       0.00000000       0.00000000       0.00000000       0.00000000       0.12274871
Na       0.00000000       0.00000000       5.64242424       0.00000000       0.00000000      -0.12274871
2
Properties=species:S:1:pos:R:3:forces:R:3 energy=-5.000496105691609 pbc="F F F"
Na       0.00000000       0.00000000       0.00000000       0.00000000       0.00000000       0.11480347
Na       0.00000000       0.00000000       5.70202020       0.00000000       0.00000000      -0.11480347
2
Properties=species:S:1:pos:R:3:forces:R:3 energy=-4.993477425892555 pbc="F F F"
Na       0.00000000       0.00000000       0.00000000       0.00000000       0.00000000       0.12233676
Na       0.00000000       0.00000000       5.76161616       0.00000000       0.00000000      -0.12233676
2
Properties=species:S:1:pos:R:3:forces:R:3 energy=-4.986164075144781 pbc="F F F"
Na       0.00000000       0.00000000       0.00000000       0.00000000       0.00000000       0.11744066
Na       0.00000000       0.00000000       5.82121212       0.00000000       0.00000000      -0.11744066
2
Properties=species:S:1:pos:R:3:forces:R:3 energy=-4.980230908048739 pbc="F F F"
Na       0.00000000       0.00000000       0.00000000       0.00000000       0.00000000       0.07757479
Na       0.00000000       0.00000000       5.88080808       0.00000000       0.00000000      -0.07757479
2
Properties=species:S:1:pos:R:3:forces:R:3 energy=-4.977059481586988 pbc="F F F"
Na       0.00000000       0.00000000       0.00000000       0.00000000       0.00000000       0.03002276
Na       0.00000000       0.00000000       5.94040404       0.00000000       0.00000000      -0.03002276
2
Properties=species:S:1:pos:R:3:forces:R:3 energy=-4.9760662545440635 pbc="F F F"
Na       0.00000000       0.00000000       0.00000000       0.00000000       0.00000000       0.01004879
Na       0.00000000       0.00000000       6.00000000       0.00000000       0.00000000      -0.01004879
