2
Properties=species:S:1:pos:R:3:forces:R:3 energy=1575.6029616590274 pbc="F F F"
Na       0.00000000       0.00000000       0.00000000       0.00000000       0.00000000  -13272.25097656
Na       0.00000000       0.00000000       0.18000000       0.00000000       0.00000000   13272.25097656
2
Properties=species:S:1:pos:R:3:forces:R:3 energy=1067.7147780652774 pbc="F F F"
Na       0.00000000       0.00000000       0.00000000       0.00000000       0.00000000   -5511.74511719
Na       0.00000000       0.00000000       0.23878788       0.00000000       0.00000000    5511.74511719
2
Properties=species:S:1:pos:R:3:forces:R:3 energy=828.577754139496 pbc="F F F"
Na       0.00000000       0.00000000       0.00000000       0.00000000       0.00000000   -3088.57934570
Na       0.00000000       0.00000000       0.29757576       0.00000000       0.00000000    3088.57934570
2
Properties=species:S:1:pos:R:3:forces:R:3 energy=670.3593093152773 pbc="F F F"
Na       0.00000000       0.00000000       0.00000000       0.00000000       0.00000000   -2473.32153320
Na       0.00000000       0.00000000       0.35636364       0.00000000       0.00000000    2473.32153320
2
Properties=species:S:1:pos:R:3:forces:R:3 energy=524.443232655121 pbc="F F F"
Na       0.00000000       0.00000000       0.00000000       0.00000000       0.00000000   -2552.14697266
Na       0.00000000       0.00000000       0.41515152       0.00000000       0.00000000    2552.14697266
2
Properties=species:S:1:pos:R:3:forces:R:3 energy=368.21819603442333 pbc="F F F"
Na       0.00000000       0.00000000       0.00000000       0.00000000       0.00000000   -2738.48583984
Na       0.00000000       0.00000000       0.47393939       0.00000000       0.00000000    2738.48583984
2
Properties=species:S:1:pos:R:3:forces:R:3 energy=209.7646132711474 pbc="F F F"
Na       0.00000000       0.00000000       0.00000000       0.00000000       0.00000000   -2557.50488281
Na       0.00000000       0.00000000       0.53272727       0.00000000       0.00000000    2557.50488281
2
Properties=species:S:1:pos:R:3:forces:R:3 energy=79.04375755984069 pbc="F F F"
Na       0.00000000       0.00000000       0.00000000       0.00000000       0.00000000   -1835.28112793
Na       0.00000000       0.00000000       0.59151515       0.00000000       0.00000000    1835.28112793
2
Properties=species:S:1:pos:R:3:forces:R:3 energy=27.56314576027714 pbc="F F F"
Na       0.00000000       0.00000000       0.00000000       0.00000000       0.00000000    -124.80773926
Na       0.00000000       0.00000000       0.65030303       0.00000000       0.00000000     124.80773926
2
Properties=species:S:1:pos:R:3:forces:R:3 energy=22.411429530353203 pbc="F F F"
Na       0.00000000       0.00000000       0.00000000       0.00000000       0.00000000    -104.19300842
Na       0.00000000       0.00000000       0.70909091       0.00000000       0.00000000     104.19300842
2
Properties=species:S:1:pos:R:3:forces:R:3 energy=16.580844054576655 pbc="F F F"
Na       0.00000000       0.00000000       0.00000000       0.00000000       0.00000000     -88.69536591
Na       0.00000000       0.00000000       0.76787879       0.00000000       0.00000000      88.69536591
2
Properties=species:S:1:pos:R:3:forces:R:3 energy=12.24275125695722 pbc="F F F"
Na       0.00000000       0.00000000       0.00000000       0.00000000       0.00000000     -59.85140228
Na       0.00000000       0.00000000       0.82666667       0.00000000       0.00000000      59.85140228
2
Properties=species:S:1:pos:R:3:forces:R:3 energy=9.153662825727325 pbc="F F F"
Na       0.00000000       0.00000000       0.00000000       0.00000000       0.00000000     -59.10840988
Na       0.00000000       0.00000000       0.88545455       0.00000000       0.00000000      59.10840988
2
Properties=species:S:1:pos:R:3:forces:R:3 energy=6.089325584036101 pbc="F F F"
Na       0.00000000       0.00000000       0.00000000       0.00000000       0.00000000     -44.22839737
Na       0.00000000       0.00000000       0.94424242       0.00000000       0.00000000      44.22839737
2
Properties=species:S:1:pos:R:3:forces:R:3 energy=3.922715836568046 pbc="F F F"
Na       0.00000000       0.00000000       0.00000000       0.00000000       0.00000000     -31.73442078
Na       0.00000000       0.00000000       1.00303030       0.00000000       0.00000000      31.73442078
2
Properties=species:S:1:pos:R:3:forces:R:3 energy=2.24740143271666 pbc="F F F"
Na       0.00000000       0.00000000       0.00000000       0.00000000       0.00000000     -25.03092194
Na       0.00000000       0.00000000       1.06181818       0.00000000       0.00000000      25.03092194
2
Properties=species:S:1:pos:R:3:forces:R:3 energy=0.9769866331608422 pbc="F F F"
Na       0.00000000       0.00000000       0.00000000       0.00000000       0.00000000     -18.57250404
Na       0.00000000       0.00000000       1.12060606       0.00000000       0.00000000      18.57250404
2
Properties=species:S:1:pos:R:3:forces:R:3 energy=0.017140175384632285 pbc="F F F"
Na       0.00000000       0.00000000       0.00000000       0.00000000       0.00000000     -14.38112164
Na       0.00000000       0.00000000       1.17939394       0.00000000       0.00000000      14.38112164
2
Properties=species:S:1:pos:R:3:forces:R:3 energy=-0.740882560700892 pbc="F F F"
Na       0.00000000       0.00000000       0.00000000       0.00000000       0.00000000     -11.59291267
Na       0.00000000       0.00000000       1.23818182       0.00000000       0.00000000      11.59291267
2
Properties=species:S:1:pos:R:3:forces:R:3 energy=-1.361534218902817 pbc="F F F"
Na       0.00000000       0.00000000       0.00000000       0.00000000       0.00000000      -9.58759022
Na       0.00000000       0.00000000       1.29696970       0.00000000       0.00000000       9.58759022
2
Properties=species:S:1:pos:R:3:forces:R:3 energy=-1.8677149025559143 pbc="F F F"
Na       0.00000000       0.00000000       0.00000000       0.00000000       0.00000000      -7.57691669
Na       0.00000000       0.00000000       1.35575758       0.00000000       0.00000000       7.57691669
2
Properties=species:S:1:pos:R:3:forces:R:3 energy=-2.245270650729441 pbc="F F F"
Na       0.00000000       0.00000000       0.00000000       0.00000000       0.00000000      -5.23818302
Na       0.00000000       0.00000000       1.41454545       0.00000000       0.00000000       5.23818302
2
Properties=species:S:1:pos:R:3:forces:R:3 energy=-2.4876137149125084 pbc="F F F"
Na       0.00000000       0.00000000       0.00000000       0.00000000       0.00000000      -3.10716414
Na       0.00000000       0.00000000       1.47333333       0.00000000       0.00000000       3.10716414
2
Properties=species:S:1:pos:R:3:forces:R:3 energy=-2.6283298783607743 pbc="F F F"
Na       0.00000000       0.00000000       0.00000000       0.00000000       0.00000000      -1.86359334
Na       0.00000000       0.00000000       1.53212121       0.00000000       0.00000000       1.86359334
2
Properties=species:S:1:pos:R:3:forces:R:3 energy=-2.728614033020504 pbc="F F F"
Na       0.00000000       0.00000000       0.00000000       0.00000000       0.00000000      -1.71546483
Na       0.00000000       0.00000000       1.59090909       0.00000000       0.00000000       1.71546483
2
Properties=species:S:1:pos:R:3:forces:R:3 energy=-2.8442747167149887 pbc="F F F"
Na       0.00000000       0.00000000       0.00000000       0.00000000       0.00000000      -2.28474832
Na       0.00000000       0.00000000       1.64969697       0.00000000       0.00000000       2.28474832
2
Properties=species:S:1:pos:R:3:forces:R:3 energy=-2.9988154662429283 pbc="F F F"
Na       0.00000000       0.00000000       0.00000000       0.00000000       0.00000000      -2.94645691
Na       0.00000000       0.00000000       1.70848485       0.00000000       0.00000000       2.94645691
2
Properties=species:S:1:pos:R:3:forces:R:3 energy=-3.185542672076491 pbc="F F F"
Na       0.00000000       0.00000000       0.00000000       0.00000000       0.00000000      -3.35686421
Na       0.00000000       0.00000000       1.76727273       0.00000000       0.00000000       3.35686421
2
Properties=species:S:1:pos:R:3:forces:R:3 energy=-3.3883969280409767 pbc="F F F"
Na       0.00000000       0.00000000       0.00000000       0.00000000       0.00000000      -3.50987983
Na       0.00000000       0.00000000       1.82606061       0.00000000       0.00000000       3.50987983
2
Properties=species:S:1:pos:R:3:forces:R:3 energy=-3.595248441398525 pbc="F F F"
Na       0.00000000       0.00000000       0.00000000       0.00000000       0.00000000      -3.50992489
Na       0.00000000       0.00000000       1.88484848       0.00000000       0.00000000       3.50992489
2
Properties=species:S:1:pos:R:3:forces:R:3 energy=-3.799606018807028 pbc="F F F"
Na       0.00000000       0.00000000       0.00000000       0.00000000       0.00000000      -3.43291998
Na       0.00000000       0.00000000       1.94363636       0.00000000       0.00000000       3.43291998
2
Properties=species:S:1:pos:R:3:forces:R:3 energy=-3.997849978707167 pbc="F F F"
Na       0.00000000       0.00000000       0.00000000       0.00000000       0.00000000      -3.30273056
Na       0.00000000       0.00000000       2.00242424       0.00000000       0.00000000       3.30273056
2
Properties=species:S:1:pos:R:3:forces:R:3 energy=-4.186869900832627 pbc="F F F"
Na       0.00000000       0.00000000       0.00000000       0.00000000       0.00000000      -3.11876845
Na       0.00000000       0.00000000       2.06121212       0.00000000       0.00000000       3.11876845
2
Properties=species:S:1:pos:R:3:forces:R:3 energy=-4.363553459152372 pbc="F F F"
Na       0.00000000       0.00000000       0.00000000       0.00000000       0.00000000      -2.88484383
Na       0.00000000       0.00000000       2.12000000       0.00000000       0.00000000       2.88484383
2
Properties=species:S:1:pos:R:3:forces:R:3 energy=-4.525388184820607 pbc="F F F"
Na       0.00000000       0.00000000       0.00000000       0.00000000       0.00000000      -2.61695218
Na       0.00000000       0.00000000       2.17878788       0.00000000       0.00000000       2.61695218
2
Properties=species:S:1:pos:R:3:forces:R:3 energy=-4.670991717412237 pbc="F F F"
Na       0.00000000       0.00000000       0.00000000       0.00000000       0.00000000      -2.33609366
Na       0.00000000       0.00000000       2.23757576       0.00000000       0.00000000       2.33609366
2
Properties=species:S:1:pos:R:3:forces:R:3 energy=-4.80016759289048 pbc="F F F"
Na       0.00000000       0.00000000       0.00000000       0.00000000       0.00000000      -2.06077671
Na       0.00000000       0.00000000       2.29636364       0.00000000       0.00000000       2.06077671
2
Properties=species:S:1:pos:R:3:forces:R:3 energy=-4.913663966380692 pbc="F F F"
Na       0.00000000       0.00000000       0.00000000       0.00000000       0.00000000      -1.80444360
Na       0.00000000       0.00000000       2.35515152       0.00000000       0.00000000       1.80444360
2
Properties=species:S:1:pos:R:3:forces:R:3 energy=-5.012862719490922 pbc="F F F"
Na       0.00000000       0.00000000       0.00000000       0.00000000       0.00000000      -1.57528543
Na       0.00000000       0.00000000       2.41393939       0.00000000       0.00000000       1.57528543
2
Properties=species:S:1:pos:R:3:forces:R:3 energy=-5.099469043677682 pbc="F F F"
Na       0.00000000       0.00000000       0.00000000       0.00000000       0.00000000      -1.37603354
Na       0.00000000       0.00000000       2.47272727       0.00000000       0.00000000       1.37603354
2
Properties=species:S:1:pos:R:3:forces:R:3 energy=-5.175191015575077 pbc="F F F"
Na       0.00000000       0.00000000       0.00000000       0.00000000       0.00000000      -1.20422900
Na       0.00000000       0.00000000       2.53151515       0.00000000       0.00000000       1.20422900
2
Properties=species:S:1:pos:R:3:forces:R:3 energy=-5.241477348833104 pbc="F F F"
Na       0.00000000       0.00000000       0.00000000       0.00000000       0.00000000      -1.05384743
Na       0.00000000       0.00000000       2.59030303       0.00000000       0.00000000       1.05384743
2
Properties=species:S:1:pos:R:3:forces:R:3 energy=-5.2993810309657166 pbc="F F F"
Na       0.00000000       0.00000000       0.00000000       0.00000000       0.00000000      -0.91795850
Na       0.00000000       0.00000000       2.64909091       0.00000000       0.00000000       0.91795850
2
Properties=species:S:1:pos:R:3:forces:R:3 energy=-5.349584149769318 pbc="F F F"
Na       0.00000000       0.00000000       0.00000000       0.00000000       0.00000000      -0.79115379
Na       0.00000000       0.00000000       2.70787879       0.00000000       0.00000000       0.79115379
2
Properties=species:S:1:pos:R:3:forces:R:3 energy=-5.392525231810712 pbc="F F F"
Na       0.00000000       0.00000000       0.00000000       0.00000000       0.00000000      -0.67077374
Na       0.00000000       0.00000000       2.76666667       0.00000000       0.00000000       0.67077374
2
Properties=species:S:1:pos:R:3:forces:R:3 energy=-5.428575248003522 pbc="F F F"
Na       0.00000000       0.00000000       0.00000000       0.00000000       0.00000000      -0.55684096
Na       0.00000000       0.00000000       2.82545455       0.00000000       0.00000000       0.55684096
2
Properties=species:S:1:pos:R:3:forces:R:3 energy=-5.45815784230437 pbc="F F F"
Na       0.00000000       0.00000000       0.00000000       0.00000000       0.00000000      -0.45116514
Na       0.00000000       0.00000000       2.88424242       0.00000000       0.00000000       0.45116514
2
Properties=species:S:1:pos:R:3:forces:R:3 energy=-5.4818300229186745 pbc="F F F"
Na       0.00000000       0.00000000       0.00000000       0.00000000       0.00000000      -0.35615003
Na       0.00000000       0.00000000       2.94303030       0.00000000       0.00000000       0.35615003
2
Properties=species:S:1:pos:R:3:forces:R:3 energy=-5.500279458480876 pbc="F F F"
Na       0.00000000       0.00000000       0.00000000       0.00000000       0.00000000      -0.27371818
Na       0.00000000       0.00000000       3.00181818       0.00000000       0.00000000       0.27371818
2
Properties=species:S:1:pos:R:3:forces:R:3 energy=-5.514275647347227 pbc="F F F"
Na       0.00000000       0.00000000       0.00000000       0.00000000       0.00000000      -0.20466983
Na       0.00000000       0.00000000       3.06060606       0.00000000       0.00000000       0.20466983
2
Properties=species:S:1:pos:R:3:forces:R:3 energy=-5.5245983713512885 pbc="F F F"
Na       0.00000000       0.00000000       0.00000000       0.00000000       0.00000000      -0.14857118
Na       0.00000000       0.00000000       3.11939394       0.00000000       0.00000000       0.14857118
2
Properties=species:S:1:pos:R:3:forces:R:3 energy=-5.531970330140157 pbc="F F F"
Na       0.00000000       0.00000000       0.00000000       0.00000000       0.00000000      -0.10399237
Na       0.00000000       0.00000000       3.17818182       0.00000000       0.00000000       0.10399237
2
Properties=species:S:1:pos:R:3:forces:R:3 energy=-5.537011861995505 pbc="F F F"
Na       0.00000000       0.00000000       0.00000000       0.00000000       0.00000000      -0.06888083
Na       0.00000000       0.00000000       3.23696970       0.00000000       0.00000000       0.06888083
2
Properties=species:S:1:pos:R:3:forces:R:3 energy=-5.540208308559052 pbc="F F F"
Na       0.00000000       0.00000000       0.00000000       0.00000000       0.00000000      -0.04088837
Na       0.00000000       0.00000000       3.29575758       0.00000000       0.00000000       0.04088837
2
Properties=species:S:1:pos:R:3:forces:R:3 energy=-5.54191240930649 pbc="F F F"
Na       0.00000000       0.00000000       0.00000000       0.00000000       0.00000000      -0.01769535
Na       0.00000000       0.00000000       3.35454545       0.00000000       0.00000000       0.01769535
2
Properties=species:S:1:pos:R:3:forces:R:3 energy=-5.542345161124347 pbc="F F F"
Na       0.00000000       0.00000000       0.00000000       0.00000000       0.00000000       0.00262827
Na       0.00000000       0.00000000       3.41333333       0.00000000       0.00000000      -0.00262827
2
Properties=species:S:1:pos:R:3:forces:R:3 energy=-5.541637532075949 pbc="F F F"
Na       0.00000000       0.00000000       0.00000000       0.00000000       0.00000000       0.02120198
Na       0.00000000       0.00000000       3.47212121       0.00000000       0.00000000      -0.02120198
2
Properties=species:S:1:pos:R:3:forces:R:3 energy=-5.53988399859858 pbc="F F F"
Na       0.00000000       0.00000000       0.00000000       0.00000000       0.00000000       0.03811757
Na       0.00000000       0.00000000       3.53090909       0.00000000       0.00000000      -0.03811757
2
Properties=species:S:1:pos:R:3:forces:R:3 energy=-5.5371986811213505 pbc="F F F"
Na       0.00000000       0.00000000       0.00000000       0.00000000       0.00000000       0.05285428
Na       0.00000000       0.00000000       3.58969697       0.00000000       0.00000000      -0.05285428
2
Properties=species:S:1:pos:R:3:forces:R:3 energy=-5.533705163120907 pbc="F F F"
Na       0.00000000       0.00000000       0.00000000       0.00000000       0.00000000       0.06591560
Na       0.00000000       0.00000000       3.64848485       0.00000000       0.00000000      -0.06591560
2
Properties=species:S:1:pos:R:3:forces:R:3 energy=-5.529409477793841 pbc="F F F"
Na       0.00000000       0.00000000       0.00000000       0.00000000       0.00000000       0.08109847
Na       0.00000000       0.00000000       3.70727273       0.00000000       0.00000000      -0.08109847
2
Properties=species:S:1:pos:R:3:forces:R:3 energy=-5.524000814189566 pbc="F F F"
Na       0.00000000       0.00000000       0.00000000       0.00000000       0.00000000       0.10478986
Na       0.00000000       0.00000000       3.76606061       0.00000000       0.00000000      -0.10478986
2
Properties=species:S:1:pos:R:3:forces:R:3 energy=-5.516849634019978 pbc="F F F"
Na       0.00000000       0.00000000       0.00000000       0.00000000       0.00000000       0.14043577
Na       0.00000000       0.00000000       3.82484848       0.00000000       0.00000000      -0.14043577
2
Properties=species:S:1:pos:R:3:forces:R:3 energy=-5.507308971543125 pbc="F F F"
Na       0.00000000       0.00000000       0.00000000       0.00000000       0.00000000       0.18517946
Na       0.00000000       0.00000000       3.88363636       0.00000000       0.00000000      -0.18517946
2
Properties=species:S:1:pos:R:3:forces:R:3 energy=-5.495012832935254 pbc="F F F"
Na       0.00000000       0.00000000       0.00000000       0.00000000       0.00000000       0.23327199
Na       0.00000000       0.00000000       3.94242424       0.00000000       0.00000000      -0.23327199
2
Properties=species:S:1:pos:R:3:forces:R:3 energy=-5.479905255856911 pbc="F F F"
Na       0.00000000       0.00000000       0.00000000       0.00000000       0.00000000       0.28026721
Na       0.00000000       0.00000000       4.00121212       0.00000000       0.00000000      -0.28026721
2
Properties=species:S:1:pos:R:3:forces:R:3 energy=-5.46212882194869 pbc="F F F"
Na       0.00000000       0.00000000       0.00000000       0.00000000       0.00000000       0.32379395
Na       0.00000000       0.00000000       4.06000000       0.00000000       0.00000000      -0.32379395
2
Properties=species:S:1:pos:R:3:forces:R:3 energy=-5.441927413664457 pbc="F F F"
Na       0.00000000       0.00000000       0.00000000       0.00000000       0.00000000       0.36260149
Na       0.00000000       0.00000000       4.11878788       0.00000000       0.00000000      -0.36260149
2
Properties=species:S:1:pos:R:3:forces:R:3 energy=-5.419606610173449 pbc="F F F"
Na       0.00000000       0.00000000       0.00000000       0.00000000       0.00000000       0.39574495
Na       0.00000000       0.00000000       4.17757576       0.00000000       0.00000000      -0.39574495
2
Properties=species:S:1:pos:R:3:forces:R:3 energy=-5.39552566509045 pbc="F F F"
Na       0.00000000       0.00000000       0.00000000       0.00000000       0.00000000       0.42230916
Na       0.00000000       0.00000000       4.23636364       0.00000000       0.00000000      -0.42230916
2
Properties=species:S:1:pos:R:3:forces:R:3 energy=-5.3700990105519235 pbc="F F F"
Na       0.00000000       0.00000000       0.00000000       0.00000000       0.00000000       0.44141287
Na       0.00000000       0.00000000       4.29515152       0.00000000       0.00000000      -0.44141287
2
Properties=species:S:1:pos:R:3:forces:R:3 energy=-5.343787054983186 pbc="F F F"
Na       0.00000000       0.00000000       0.00000000       0.00000000       0.00000000       0.45236206
Na       0.00000000       0.00000000       4.35393939       0.00000000       0.00000000      -0.45236206
2
Properties=species:S:1:pos:R:3:forces:R:3 energy=-5.317079972683907 pbc="F F F"
Na       0.00000000       0.00000000       0.00000000       0.00000000       0.00000000       0.45477855
Na       0.00000000       0.00000000       4.41272727       0.00000000       0.00000000      -0.45477855
2
Properties=species:S:1:pos:R:3:forces:R:3 energy=-5.2904815507541025 pbc="F F F"
Na       0.00000000       0.00000000       0.00000000       0.00000000       0.00000000       0.44874877
Na       0.00000000       0.00000000       4.47151515       0.00000000       0.00000000      -0.44874877
2
Properties=species:S:1:pos:R:3:forces:R:3 energy=-5.264471784576145 pbc="F F F"
Na       0.00000000       0.00000000       0.00000000       0.00000000       0.00000000       0.43488586
Na       0.00000000       0.00000000       4.53030303       0.00000000       0.00000000      -0.43488586
2
Properties=species:S:1:pos:R:3:forces:R:3 energy=-5.239481334196959 pbc="F F F"
Na       0.00000000       0.00000000       0.00000000       0.00000000       0.00000000       0.41432387
Na       0.00000000       0.00000000       4.58909091       0.00000000       0.00000000      -0.41432387
2
Properties=species:S:1:pos:R:3:forces:R:3 energy=-5.21585905006025 pbc="F F F"
Na       0.00000000       0.00000000       0.00000000       0.00000000       0.00000000       0.38860881
Na       0.00000000       0.00000000       4.64787879       0.00000000       0.00000000      -0.38860881
2
Properties=species:S:1:pos:R:3:forces:R:3 energy=-5.193856129514478 pbc="F F F"
Na       0.00000000       0.00000000       0.00000000       0.00000000       0.00000000       0.35950589
Na       0.00000000       0.00000000       4.70666667       0.00000000       0.00000000      -0.35950589
2
Properties=species:S:1:pos:R:3:forces:R:3 energy=-5.17362101882792 pbc="F F F"
Na       0.00000000       0.00000000       0.00000000       0.00000000       0.00000000       0.32879317
Na       0.00000000       0.00000000       4.76545455       0.00000000       0.00000000      -0.32879317
2
Properties=species:S:1:pos:R:3:forces:R:3 energy=-5.1551978796430555 pbc="F F F"
Na       0.00000000       0.00000000       0.00000000       0.00000000       0.00000000       0.29807678
Na       0.00000000       0.00000000       4.82424242       0.00000000       0.00000000      -0.29807678
2
Properties=species:S:1:pos:R:3:forces:R:3 energy=-5.138548814925479 pbc="F F F"
Na       0.00000000       0.00000000       0.00000000       0.00000000       0.00000000       0.26871499
Na       0.00000000       0.00000000       4.88303030       0.00000000       0.00000000      -0.26871499
2
Properties=species:S:1:pos:R:3:forces:R:3 energy=-5.123554952518923 pbc="F F F"
Na       0.00000000       0.00000000       0.00000000       0.00000000       0.00000000       0.24183697
Na       0.00000000       0.00000000       4.94181818       0.00000000       0.00000000      -0.24183697
2
Properties=species:S:1:pos:R:3:forces:R:3 energy=-5.110045245444081 pbc="F F F"
Na       0.00000000       0.00000000       0.00000000       0.00000000       0.00000000       0.21840598
Na       0.00000000       0.00000000       5.00060606       0.00000000       0.00000000      -0.21840598
2
Properties=species:S:1:pos:R:3:forces:R:3 energy=-5.097792730061251 pbc="F F F"
Na       0.00000000       0.00000000       0.00000000       0.00000000       0.00000000       0.19918230
Na       0.00000000       0.00000000       5.05939394       0.00000000       0.00000000      -0.19918230
2
Properties=species:S:1:pos:R:3:forces:R:3 energy=-5.0865346086678676 pbc="F F F"
Na       0.00000000       0.00000000       0.00000000       0.00000000       0.00000000       0.18459488
Na       0.00000000       0.00000000       5.11818182       0.00000000       0.00000000      -0.18459488
2
Properties=species:S:1:pos:R:3:forces:R:3 energy=-5.0760023235016005 pbc="F F F"
Na       0.00000000       0.00000000       0.00000000       0.00000000       0.00000000       0.17441253
Na       0.00000000       0.00000000       5.17696970       0.00000000       0.00000000      -0.17441253
2
Properties=species:S:1:pos:R:3:forces:R:3 energy=-5.065968826975462 pbc="F F F"
Na       0.00000000       0.00000000       0.00000000       0.00000000       0.00000000       0.16724733
Na       0.00000000       0.00000000       5.23575758       0.00000000       0.00000000      -0.16724733
2
Properties=species:S:1:pos:R:3:forces:R:3 energy=-5.05633630070798 pbc="F F F"
Na       0.00000000       0.00000000       0.00000000       0.00000000       0.00000000       0.16020137
Na       0.00000000       0.00000000       5.29454545       0.00000000       0.00000000      -0.16020137
2
Properties=species:S:1:pos:R:3:forces:R:3 energy=-5.047194404100321 pbc="F F F"
Na       0.00000000       0.00000000       0.00000000       0.00000000       0.00000000       0.15016590
Na       0.00000000       0.00000000       5.35333333       0.00000000       0.00000000      -0.15016590
2
Properties=species:S:1:pos:R:3:forces:R:3 energy=-5.038710056844571 pbc="F F F"
Na       0.00000000       0.00000000       0.00000000       0.00000000       0.00000000       0.13888821
Na       0.00000000       0.00000000       5.41212121       0.00000000       0.00000000      -0.13888821
2
Properties=species:S:1:pos:R:3:forces:R:3 energy=-5.030707855486644 pbc="F F F"
Na       0.00000000       0.00000000       0.00000000       0.00000000       0.00000000       0.13530825
Na       0.00000000       0.00000000       5.47090909       0.00000000       0.00000000      -0.13530825
2
Properties=species:S:1:pos:R:3:forces:R:3 energy=-5.022633844889642 pbc="F F F"
Na       0.00000000       0.00000000       0.00000000       0.00000000       0.00000000       0.13945495
Na       0.00000000       0.00000000       5.52969697       0.00000000       0.00000000      -0.13945495
2
Properties=species:S:1:pos:R:3:forces:R:3 energy=-5.014480549058634 pbc="F F F"
Na       0.00000000       0.00000000       0.00000000       0.00000000       0.00000000       0.13560742
Na       0.00000000       0.00000000       5.58848485       0.00000000       0.00000000      -0.13560742
2
Properties=species:S:1:pos:R:3:forces:R:3 energy=-5.006904754670463 pbc="F F F"
Na       0.00000000       0.00000000       0.00000000       0.00000000       0.00000000       0.12158339
Na       0.00000000       0.00000000       5.64727273       0.00000000       0.00000000      -0.12158339
2
Properties=species:S:1:pos:R:3:forces:R:3 energy=-5.000039210700753 pbc="F F F"
Na       0.00000000       0.00000000       0.00000000       0.00000000       0.00000000       0.11489793
Na       0.00000000       0.00000000       5.70606061       0.00000000       0.00000000      -0.11489793
2
Properties=species:S:1:pos:R:3:forces:R:3 energy=-4.993065369658868 pbc="F F F"
Na       0.00000000       0.00000000       0.00000000       0.00000000       0.00000000       0.12289453
Na       0.00000000       0.00000000       5.76484848       0.00000000       0.00000000      -0.12289453
2
Properties=species:S:1:pos:R:3:forces:R:3 energy=-4.98587708352026 pbc="F F F"
Na       0.00000000       0.00000000       0.00000000       0.00000000       0.00000000       0.11649412
Na       0.00000000       0.00000000       5.82363636       0.00000000       0.00000000      -0.11649412
2
Properties=species:S:1:pos:R:3:forces:R:3 energy=-4.980092867240805 pbc="F F F"
Na       0.00000000       0.00000000       0.00000000       0.00000000       0.00000000       0.07626148
Na       0.00000000       0.00000000       5.88242424       0.00000000       0.00000000      -0.07626148
2
Properties=species:S:1:pos:R:3:forces:R:3 energy=-4.97703985184276 pbc="F F F"
Na       0.00000000       0.00000000       0.00000000       0.00000000       0.00000000       0.02947257
Na       0.00000000       0.00000000       5.94121212       0.00000000       0.00000000      -0.02947257
2
Properties=species:S:1:pos:R:3:forces:R:3 energy=-4.9760662545440635 pbc="F F F"
Na       0.00000000       0.00000000       0.00000000       0.00000000       0.00000000       0.01004879
Na       0.00000000       0.00000000       6.00000000       0.00000000       0.00000000      -0.01004879
