2
Properties=species:S:1:pos:R:3:forces:R:3 energy=-495719.1450528654 pbc="F F F"
Nb       0.00000000       0.00000000       0.00000000       0.00000000       0.00000000   14176.16699219
Nb       0.00000000       0.00000000       0.18000000       0.00000000       0.00000000  -14176.16699219
2
Properties=species:S:1:pos:R:3:forces:R:3 energy=-487066.1763028654 pbc="F F F"
Nb       0.00000000       0.00000000       0.00000000       0.00000000       0.00000000  289132.84375000
Nb       0.00000000       0.00000000       0.23878788       0.00000000       0.00000000 -289132.84375000
2
Properties=species:S:1:pos:R:3:forces:R:3 energy=-459517.8013028654 pbc="F F F"
Nb       0.00000000       0.00000000       0.00000000       0.00000000       0.00000000  671897.12500000
Nb       0.00000000       0.00000000       0.29757576       0.00000000       0.00000000 -671897.12500000
2
Properties=species:S:1:pos:R:3:forces:R:3 energy=-405294.0513028654 pbc="F F F"
Nb       0.00000000       0.00000000       0.00000000       0.00000000       0.00000000 1192643.87500000
Nb       0.00000000       0.00000000       0.35636364       0.00000000       0.00000000 -1192643.87500000
2
Properties=species:S:1:pos:R:3:forces:R:3 energy=-318309.8325528638 pbc="F F F"
Nb       0.00000000       0.00000000       0.00000000       0.00000000       0.00000000 1758628.50000000
Nb       0.00000000       0.00000000       0.41515152       0.00000000       0.00000000 -1758628.50000000
2
Properties=species:S:1:pos:R:3:forces:R:3 energy=-202131.25442786224 pbc="F F F"
Nb       0.00000000       0.00000000       0.00000000       0.00000000       0.00000000 2137183.25000000
Nb       0.00000000       0.00000000       0.47393939       0.00000000       0.00000000 -2137183.25000000
2
Properties=species:S:1:pos:R:3:forces:R:3 energy=-76700.32474035906 pbc="F F F"
Nb       0.00000000       0.00000000       0.00000000       0.00000000       0.00000000 2246090.25000000
Nb       0.00000000       0.00000000       0.53272727       0.00000000       0.00000000 -2246090.25000000
2
Properties=species:S:1:pos:R:3:forces:R:3 energy=33748.190884645686 pbc="F F F"
Nb       0.00000000       0.00000000       0.00000000       0.00000000       0.00000000 1401945.12500000
Nb       0.00000000       0.00000000       0.59151515       0.00000000       0.00000000 -1401945.12500000
2
Properties=species:S:1:pos:R:3:forces:R:3 energy=82598.78463465361 pbc="F F F"
Nb       0.00000000       0.00000000       0.00000000       0.00000000       0.00000000  289277.87500000
Nb       0.00000000       0.00000000       0.65030303       0.00000000       0.00000000 -289277.87500000
2
Properties=species:S:1:pos:R:3:forces:R:3 energy=68650.3627596647 pbc="F F F"
Nb       0.00000000       0.00000000       0.00000000       0.00000000       0.00000000 -613521.25000000
Nb       0.00000000       0.00000000       0.70909091       0.00000000       0.00000000  613521.25000000
2
Properties=species:S:1:pos:R:3:forces:R:3 energy=27506.595181558703 pbc="F F F"
Nb       0.00000000       0.00000000       0.00000000       0.00000000       0.00000000 -656127.06250000
Nb       0.00000000       0.00000000       0.76787879       0.00000000       0.00000000  656127.06250000
2
Properties=species:S:1:pos:R:3:forces:R:3 energy=4935.43551361688 pbc="F F F"
Nb       0.00000000       0.00000000       0.00000000       0.00000000       0.00000000 -186444.51562500
Nb       0.00000000       0.00000000       0.82666667       0.00000000       0.00000000  186444.51562500
2
Properties=species:S:1:pos:R:3:forces:R:3 energy=876.176236312728 pbc="F F F"
Nb       0.00000000       0.00000000       0.00000000       0.00000000       0.00000000    2747.20703125
Nb       0.00000000       0.00000000       0.88545455       0.00000000       0.00000000   -2747.20703125
2
Properties=species:S:1:pos:R:3:forces:R:3 energy=831.5087558994148 pbc="F F F"
Nb       0.00000000       0.00000000       0.00000000       0.00000000       0.00000000   -2151.43408203
Nb       0.00000000       0.00000000       0.94424242       0.00000000       0.00000000    2151.43408203
2
Properties=species:S:1:pos:R:3:forces:R:3 energy=667.1289952300872 pbc="F F F"
Nb       0.00000000       0.00000000       0.00000000       0.00000000       0.00000000   -3028.67700195
Nb       0.00000000       0.00000000       1.00303030       0.00000000       0.00000000    3028.67700195
2
Properties=species:S:1:pos:R:3:forces:R:3 energy=495.6102880560669 pbc="F F F"
Nb       0.00000000       0.00000000       0.00000000       0.00000000       0.00000000   -2772.12597656
Nb       0.00000000       0.00000000       1.06181818       0.00000000       0.00000000    2772.12597656
2
Properties=species:S:1:pos:R:3:forces:R:3 energy=348.15832285708416 pbc="F F F"
Nb       0.00000000       0.00000000       0.00000000       0.00000000       0.00000000   -2274.72802734
Nb       0.00000000       0.00000000       1.12060606       0.00000000       0.00000000    2274.72802734
2
Properties=species:S:1:pos:R:3:forces:R:3 energy=225.15882656976956 pbc="F F F"
Nb       0.00000000       0.00000000       0.00000000       0.00000000       0.00000000   -2003.17602539
Nb       0.00000000       0.00000000       1.17939394       0.00000000       0.00000000    2003.17602539
2
Properties=species:S:1:pos:R:3:forces:R:3 energy=114.34617420521039 pbc="F F F"
Nb       0.00000000       0.00000000       0.00000000       0.00000000       0.00000000   -1741.93872070
Nb       0.00000000       0.00000000       1.23818182       0.00000000       0.00000000    1741.93872070
2
Properties=species:S:1:pos:R:3:forces:R:3 energy=27.448705923419844 pbc="F F F"
Nb       0.00000000       0.00000000       0.00000000       0.00000000       0.00000000   -1011.50170898
Nb       0.00000000       0.00000000       1.29696970       0.00000000       0.00000000    1011.50170898
2
Properties=species:S:1:pos:R:3:forces:R:3 energy=-4.280013429919963 pbc="F F F"
Nb       0.00000000       0.00000000       0.00000000       0.00000000       0.00000000      77.99819946
Nb       0.00000000       0.00000000       1.35575758       0.00000000       0.00000000     -77.99819946
2
Properties=species:S:1:pos:R:3:forces:R:3 energy=-8.135893720561727 pbc="F F F"
Nb       0.00000000       0.00000000       0.00000000       0.00000000       0.00000000    -178.15208435
Nb       0.00000000       0.00000000       1.41454545       0.00000000       0.00000000     178.15208435
2
Properties=species:S:1:pos:R:3:forces:R:3 energy=-17.577400508838213 pbc="F F F"
Nb       0.00000000       0.00000000       0.00000000       0.00000000       0.00000000    -138.07705688
Nb       0.00000000       0.00000000       1.47333333       0.00000000       0.00000000     138.07705688
2
Properties=species:S:1:pos:R:3:forces:R:3 energy=-24.432170491324666 pbc="F F F"
Nb       0.00000000       0.00000000       0.00000000       0.00000000       0.00000000     -95.70355988
Nb       0.00000000       0.00000000       1.53212121       0.00000000       0.00000000      95.70355988
2
Properties=species:S:1:pos:R:3:forces:R:3 energy=-29.013176671475087 pbc="F F F"
Nb       0.00000000       0.00000000       0.00000000       0.00000000       0.00000000     -63.35922623
Nb       0.00000000       0.00000000       1.59090909       0.00000000       0.00000000      63.35922623
2
Properties=species:S:1:pos:R:3:forces:R:3 energy=-32.30540627969021 pbc="F F F"
Nb       0.00000000       0.00000000       0.00000000       0.00000000       0.00000000     -50.13599396
Nb       0.00000000       0.00000000       1.64969697       0.00000000       0.00000000      50.13599396
2
Properties=species:S:1:pos:R:3:forces:R:3 energy=-34.91044658932751 pbc="F F F"
Nb       0.00000000       0.00000000       0.00000000       0.00000000       0.00000000     -39.64145660
Nb       0.00000000       0.00000000       1.70848485       0.00000000       0.00000000      39.64145660
2
Properties=species:S:1:pos:R:3:forces:R:3 energy=-36.92591378022659 pbc="F F F"
Nb       0.00000000       0.00000000       0.00000000       0.00000000       0.00000000     -27.53673172
Nb       0.00000000       0.00000000       1.76727273       0.00000000       0.00000000      27.53673172
2
Properties=species:S:1:pos:R:3:forces:R:3 energy=-38.14103812462331 pbc="F F F"
Nb       0.00000000       0.00000000       0.00000000       0.00000000       0.00000000     -14.72260857
Nb       0.00000000       0.00000000       1.82606061       0.00000000       0.00000000      14.72260857
2
Properties=species:S:1:pos:R:3:forces:R:3 energy=-38.79265512126093 pbc="F F F"
Nb       0.00000000       0.00000000       0.00000000       0.00000000       0.00000000      -8.52198982
Nb       0.00000000       0.00000000       1.88484848       0.00000000       0.00000000       8.52198982
2
Properties=species:S:1:pos:R:3:forces:R:3 energy=-39.2309234330353 pbc="F F F"
Nb       0.00000000       0.00000000       0.00000000       0.00000000       0.00000000      -6.77608442
Nb       0.00000000       0.00000000       1.94363636       0.00000000       0.00000000       6.77608442
2
Properties=species:S:1:pos:R:3:forces:R:3 energy=-39.60286532943564 pbc="F F F"
Nb       0.00000000       0.00000000       0.00000000       0.00000000       0.00000000      -5.81324959
Nb       0.00000000       0.00000000       2.00242424       0.00000000       0.00000000       5.81324959
2
Properties=species:S:1:pos:R:3:forces:R:3 energy=-39.90026784802851 pbc="F F F"
Nb       0.00000000       0.00000000       0.00000000       0.00000000       0.00000000      -4.18604755
Nb       0.00000000       0.00000000       2.06121212       0.00000000       0.00000000       4.18604755
2
Properties=species:S:1:pos:R:3:forces:R:3 energy=-40.086887744914286 pbc="F F F"
Nb       0.00000000       0.00000000       0.00000000       0.00000000       0.00000000      -2.14951944
Nb       0.00000000       0.00000000       2.12000000       0.00000000       0.00000000       2.14951944
2
Properties=species:S:1:pos:R:3:forces:R:3 energy=-40.15619464168068 pbc="F F F"
Nb       0.00000000       0.00000000       0.00000000       0.00000000       0.00000000      -0.25804618
Nb       0.00000000       0.00000000       2.17878788       0.00000000       0.00000000       0.25804618
2
Properties=species:S:1:pos:R:3:forces:R:3 energy=-40.123211555846204 pbc="F F F"
Nb       0.00000000       0.00000000       0.00000000       0.00000000       0.00000000       1.33428705
Nb       0.00000000       0.00000000       2.23757576       0.00000000       0.00000000      -1.33428705
2
Properties=species:S:1:pos:R:3:forces:R:3 energy=-40.00417506650444 pbc="F F F"
Nb       0.00000000       0.00000000       0.00000000       0.00000000       0.00000000       2.67441964
Nb       0.00000000       0.00000000       2.29636364       0.00000000       0.00000000      -2.67441964
2
Properties=species:S:1:pos:R:3:forces:R:3 energy=-39.8141859153909 pbc="F F F"
Nb       0.00000000       0.00000000       0.00000000       0.00000000       0.00000000       3.73706484
Nb       0.00000000       0.00000000       2.35515152       0.00000000       0.00000000      -3.73706484
2
Properties=species:S:1:pos:R:3:forces:R:3 energy=-39.57130627685031 pbc="F F F"
Nb       0.00000000       0.00000000       0.00000000       0.00000000       0.00000000       4.47050524
Nb       0.00000000       0.00000000       2.41393939       0.00000000       0.00000000      -4.47050524
2
Properties=species:S:1:pos:R:3:forces:R:3 energy=-39.29450434560258 pbc="F F F"
Nb       0.00000000       0.00000000       0.00000000       0.00000000       0.00000000       4.90158701
Nb       0.00000000       0.00000000       2.47272727       0.00000000       0.00000000      -4.90158701
2
Properties=species:S:1:pos:R:3:forces:R:3 energy=-38.99998933292291 pbc="F F F"
Nb       0.00000000       0.00000000       0.00000000       0.00000000       0.00000000       5.07370281
Nb       0.00000000       0.00000000       2.53151515       0.00000000       0.00000000      -5.07370281
2
Properties=species:S:1:pos:R:3:forces:R:3 energy=-38.70408115961506 pbc="F F F"
Nb       0.00000000       0.00000000       0.00000000       0.00000000       0.00000000       4.93256617
Nb       0.00000000       0.00000000       2.59030303       0.00000000       0.00000000      -4.93256617
2
Properties=species:S:1:pos:R:3:forces:R:3 energy=-38.427431359611404 pbc="F F F"
Nb       0.00000000       0.00000000       0.00000000       0.00000000       0.00000000       4.42184591
Nb       0.00000000       0.00000000       2.64909091       0.00000000       0.00000000      -4.42184591
2
Properties=species:S:1:pos:R:3:forces:R:3 energy=-38.18951662275499 pbc="F F F"
Nb       0.00000000       0.00000000       0.00000000       0.00000000       0.00000000       3.63510990
Nb       0.00000000       0.00000000       2.70787879       0.00000000       0.00000000      -3.63510990
2
Properties=species:S:1:pos:R:3:forces:R:3 energy=-38.004994725561446 pbc="F F F"
Nb       0.00000000       0.00000000       0.00000000       0.00000000       0.00000000       2.59129477
Nb       0.00000000       0.00000000       2.76666667       0.00000000       0.00000000      -2.59129477
2
Properties=species:S:1:pos:R:3:forces:R:3 energy=-37.88977276358255 pbc="F F F"
Nb       0.00000000       0.00000000       0.00000000       0.00000000       0.00000000       1.31782305
Nb       0.00000000       0.00000000       2.82545455       0.00000000       0.00000000      -1.31782305
2
Properties=species:S:1:pos:R:3:forces:R:3 energy=-37.84535681860845 pbc="F F F"
Nb       0.00000000       0.00000000       0.00000000       0.00000000       0.00000000       0.27897373
Nb       0.00000000       0.00000000       2.88424242       0.00000000       0.00000000      -0.27897373
2
Properties=species:S:1:pos:R:3:forces:R:3 energy=-37.844522567287356 pbc="F F F"
Nb       0.00000000       0.00000000       0.00000000       0.00000000       0.00000000      -0.14396411
Nb       0.00000000       0.00000000       2.94303030       0.00000000       0.00000000       0.14396411
2
Properties=species:S:1:pos:R:3:forces:R:3 energy=-37.85187217058749 pbc="F F F"
Nb       0.00000000       0.00000000       0.00000000       0.00000000       0.00000000      -0.04022922
Nb       0.00000000       0.00000000       3.00181818       0.00000000       0.00000000       0.04022922
2
Properties=species:S:1:pos:R:3:forces:R:3 energy=-37.84419009404453 pbc="F F F"
Nb       0.00000000       0.00000000       0.00000000       0.00000000       0.00000000       0.32416680
Nb       0.00000000       0.00000000       3.06060606       0.00000000       0.00000000      -0.32416680
2
Properties=species:S:1:pos:R:3:forces:R:3 energy=-37.81299980782984 pbc="F F F"
Nb       0.00000000       0.00000000       0.00000000       0.00000000       0.00000000       0.73018807
Nb       0.00000000       0.00000000       3.11939394       0.00000000       0.00000000      -0.73018807
2
Properties=species:S:1:pos:R:3:forces:R:3 energy=-37.760104214328 pbc="F F F"
Nb       0.00000000       0.00000000       0.00000000       0.00000000       0.00000000       1.04940724
Nb       0.00000000       0.00000000       3.17818182       0.00000000       0.00000000      -1.04940724
2
Properties=species:S:1:pos:R:3:forces:R:3 energy=-37.692049913614866 pbc="F F F"
Nb       0.00000000       0.00000000       0.00000000       0.00000000       0.00000000       1.24667895
Nb       0.00000000       0.00000000       3.23696970       0.00000000       0.00000000      -1.24667895
2
Properties=species:S:1:pos:R:3:forces:R:3 energy=-37.61538071267585 pbc="F F F"
Nb       0.00000000       0.00000000       0.00000000       0.00000000       0.00000000       1.34975338
Nb       0.00000000       0.00000000       3.29575758       0.00000000       0.00000000      -1.34975338
2
Properties=species:S:1:pos:R:3:forces:R:3 energy=-37.534298647663114 pbc="F F F"
Nb       0.00000000       0.00000000       0.00000000       0.00000000       0.00000000       1.40423179
Nb       0.00000000       0.00000000       3.35454545       0.00000000       0.00000000      -1.40423179
2
Properties=species:S:1:pos:R:3:forces:R:3 energy=-37.45044961222649 pbc="F F F"
Nb       0.00000000       0.00000000       0.00000000       0.00000000       0.00000000       1.44942296
Nb       0.00000000       0.00000000       3.41333333       0.00000000       0.00000000      -1.44942296
2
Properties=species:S:1:pos:R:3:forces:R:3 energy=-37.36349539121595 pbc="F F F"
Nb       0.00000000       0.00000000       0.00000000       0.00000000       0.00000000       1.51376426
Nb       0.00000000       0.00000000       3.47212121       0.00000000       0.00000000      -1.51376426
2
Properties=species:S:1:pos:R:3:forces:R:3 energy=-37.27181527228921 pbc="F F F"
Nb       0.00000000       0.00000000       0.00000000       0.00000000       0.00000000       1.61067915
Nb       0.00000000       0.00000000       3.53090909       0.00000000       0.00000000      -1.61067915
2
Properties=species:S:1:pos:R:3:forces:R:3 energy=-37.17363501442855 pbc="F F F"
Nb       0.00000000       0.00000000       0.00000000       0.00000000       0.00000000       1.73162007
Nb       0.00000000       0.00000000       3.58969697       0.00000000       0.00000000      -1.73162007
2
Properties=species:S:1:pos:R:3:forces:R:3 energy=-37.06828848569277 pbc="F F F"
Nb       0.00000000       0.00000000       0.00000000       0.00000000       0.00000000       1.84891415
Nb       0.00000000       0.00000000       3.64848485       0.00000000       0.00000000      -1.84891415
2
Properties=species:S:1:pos:R:3:forces:R:3 energy=-36.95693043314401 pbc="F F F"
Nb       0.00000000       0.00000000       0.00000000       0.00000000       0.00000000       1.93191671
Nb       0.00000000       0.00000000       3.70727273       0.00000000       0.00000000      -1.93191671
2
Properties=species:S:1:pos:R:3:forces:R:3 energy=-36.84215152723808 pbc="F F F"
Nb       0.00000000       0.00000000       0.00000000       0.00000000       0.00000000       1.96415019
Nb       0.00000000       0.00000000       3.76606061       0.00000000       0.00000000      -1.96415019
2
Properties=species:S:1:pos:R:3:forces:R:3 energy=-36.726938495368096 pbc="F F F"
Nb       0.00000000       0.00000000       0.00000000       0.00000000       0.00000000       1.94847357
Nb       0.00000000       0.00000000       3.82484848       0.00000000       0.00000000      -1.94847357
2
Properties=species:S:1:pos:R:3:forces:R:3 energy=-36.61372077066596 pbc="F F F"
Nb       0.00000000       0.00000000       0.00000000       0.00000000       0.00000000       1.89872611
Nb       0.00000000       0.00000000       3.88363636       0.00000000       0.00000000      -1.89872611
2
Properties=species:S:1:pos:R:3:forces:R:3 energy=-36.504115312766785 pbc="F F F"
Nb       0.00000000       0.00000000       0.00000000       0.00000000       0.00000000       1.82728159
Nb       0.00000000       0.00000000       3.94242424       0.00000000       0.00000000      -1.82728159
2
Properties=species:S:1:pos:R:3:forces:R:3 energy=-36.399201098117494 pbc="F F F"
Nb       0.00000000       0.00000000       0.00000000       0.00000000       0.00000000       1.73930073
Nb       0.00000000       0.00000000       4.00121212       0.00000000       0.00000000      -1.73930073
2
Properties=species:S:1:pos:R:3:forces:R:3 energy=-36.29992739078664 pbc="F F F"
Nb       0.00000000       0.00000000       0.00000000       0.00000000       0.00000000       1.63550997
Nb       0.00000000       0.00000000       4.06000000       0.00000000       0.00000000      -1.63550997
2
Properties=species:S:1:pos:R:3:forces:R:3 energy=-36.20718246086825 pbc="F F F"
Nb       0.00000000       0.00000000       0.00000000       0.00000000       0.00000000       1.51765740
Nb       0.00000000       0.00000000       4.11878788       0.00000000       0.00000000      -1.51765740
2
Properties=species:S:1:pos:R:3:forces:R:3 energy=-36.12166003523144 pbc="F F F"
Nb       0.00000000       0.00000000       0.00000000       0.00000000       0.00000000       1.39099073
Nb       0.00000000       0.00000000       4.17757576       0.00000000       0.00000000      -1.39099073
2
Properties=species:S:1:pos:R:3:forces:R:3 energy=-36.04364947016387 pbc="F F F"
Nb       0.00000000       0.00000000       0.00000000       0.00000000       0.00000000       1.26349175
Nb       0.00000000       0.00000000       4.23636364       0.00000000       0.00000000      -1.26349175
2
Properties=species:S:1:pos:R:3:forces:R:3 energy=-35.97295189455618 pbc="F F F"
Nb       0.00000000       0.00000000       0.00000000       0.00000000       0.00000000       1.14360023
Nb       0.00000000       0.00000000       4.29515152       0.00000000       0.00000000      -1.14360023
2
Properties=species:S:1:pos:R:3:forces:R:3 energy=-35.90890691278286 pbc="F F F"
Nb       0.00000000       0.00000000       0.00000000       0.00000000       0.00000000       1.03814638
Nb       0.00000000       0.00000000       4.35393939       0.00000000       0.00000000      -1.03814638
2
Properties=species:S:1:pos:R:3:forces:R:3 energy=-35.85053751568098 pbc="F F F"
Nb       0.00000000       0.00000000       0.00000000       0.00000000       0.00000000       0.95070481
Nb       0.00000000       0.00000000       4.41272727       0.00000000       0.00000000      -0.95070481
2
Properties=species:S:1:pos:R:3:forces:R:3 energy=-35.79678284043987 pbc="F F F"
Nb       0.00000000       0.00000000       0.00000000       0.00000000       0.00000000       0.88069010
Nb       0.00000000       0.00000000       4.47151515       0.00000000       0.00000000      -0.88069010
2
Properties=species:S:1:pos:R:3:forces:R:3 energy=-35.74673847118623 pbc="F F F"
Nb       0.00000000       0.00000000       0.00000000       0.00000000       0.00000000       0.82329553
Nb       0.00000000       0.00000000       4.53030303       0.00000000       0.00000000      -0.82329553
2
Properties=species:S:1:pos:R:3:forces:R:3 energy=-35.69988535566618 pbc="F F F"
Nb       0.00000000       0.00000000       0.00000000       0.00000000       0.00000000       0.77085245
Nb       0.00000000       0.00000000       4.58909091       0.00000000       0.00000000      -0.77085245
2
Properties=species:S:1:pos:R:3:forces:R:3 energy=-35.65616990755214 pbc="F F F"
Nb       0.00000000       0.00000000       0.00000000       0.00000000       0.00000000       0.71535152
Nb       0.00000000       0.00000000       4.64787879       0.00000000       0.00000000      -0.71535152
2
Properties=species:S:1:pos:R:3:forces:R:3 energy=-35.6159505975133 pbc="F F F"
Nb       0.00000000       0.00000000       0.00000000       0.00000000       0.00000000       0.65113592
Nb       0.00000000       0.00000000       4.70666667       0.00000000       0.00000000      -0.65113592
2
Properties=species:S:1:pos:R:3:forces:R:3 energy=-35.5798148794251 pbc="F F F"
Nb       0.00000000       0.00000000       0.00000000       0.00000000       0.00000000       0.57669252
Nb       0.00000000       0.00000000       4.76545455       0.00000000       0.00000000      -0.57669252
2
Properties=species:S:1:pos:R:3:forces:R:3 energy=-35.54829689643592 pbc="F F F"
Nb       0.00000000       0.00000000       0.00000000       0.00000000       0.00000000       0.49463177
Nb       0.00000000       0.00000000       4.82424242       0.00000000       0.00000000      -0.49463177
2
Properties=species:S:1:pos:R:3:forces:R:3 energy=-35.52170201439635 pbc="F F F"
Nb       0.00000000       0.00000000       0.00000000       0.00000000       0.00000000       0.41031337
Nb       0.00000000       0.00000000       4.88303030       0.00000000       0.00000000      -0.41031337
2
Properties=species:S:1:pos:R:3:forces:R:3 energy=-35.49997711898429 pbc="F F F"
Nb       0.00000000       0.00000000       0.00000000       0.00000000       0.00000000       0.32986379
Nb       0.00000000       0.00000000       4.94181818       0.00000000       0.00000000      -0.32986379
2
Properties=species:S:1:pos:R:3:forces:R:3 energy=-35.48273734551237 pbc="F F F"
Nb       0.00000000       0.00000000       0.00000000       0.00000000       0.00000000       0.25856352
Nb       0.00000000       0.00000000       5.00060606       0.00000000       0.00000000      -0.25856352
2
Properties=species:S:1:pos:R:3:forces:R:3 energy=-35.46932706498288 pbc="F F F"
Nb       0.00000000       0.00000000       0.00000000       0.00000000       0.00000000       0.19995865
Nb       0.00000000       0.00000000       5.05939394       0.00000000       0.00000000      -0.19995865
2
Properties=species:S:1:pos:R:3:forces:R:3 energy=-35.45894584195749 pbc="F F F"
Nb       0.00000000       0.00000000       0.00000000       0.00000000       0.00000000       0.15566230
Nb       0.00000000       0.00000000       5.11818182       0.00000000       0.00000000      -0.15566230
2
Properties=species:S:1:pos:R:3:forces:R:3 energy=-35.45074375447154 pbc="F F F"
Nb       0.00000000       0.00000000       0.00000000       0.00000000       0.00000000       0.12561482
Nb       0.00000000       0.00000000       5.17696970       0.00000000       0.00000000      -0.12561482
2
Properties=species:S:1:pos:R:3:forces:R:3 energy=-35.44392439561197 pbc="F F F"
Nb       0.00000000       0.00000000       0.00000000       0.00000000       0.00000000       0.10843819
Nb       0.00000000       0.00000000       5.23575758       0.00000000       0.00000000      -0.10843819
2
Properties=species:S:1:pos:R:3:forces:R:3 energy=-35.4377906514684 pbc="F F F"
Nb       0.00000000       0.00000000       0.00000000       0.00000000       0.00000000       0.10171540
Nb       0.00000000       0.00000000       5.29454545       0.00000000       0.00000000      -0.10171540
2
Properties=species:S:1:pos:R:3:forces:R:3 energy=-35.43182480660786 pbc="F F F"
Nb       0.00000000       0.00000000       0.00000000       0.00000000       0.00000000       0.10198393
Nb       0.00000000       0.00000000       5.35333333       0.00000000       0.00000000      -0.10198393
2
Properties=species:S:1:pos:R:3:forces:R:3 energy=-35.42575337175361 pbc="F F F"
Nb       0.00000000       0.00000000       0.00000000       0.00000000       0.00000000       0.10445101
Nb       0.00000000       0.00000000       5.41212121       0.00000000       0.00000000      -0.10445101
2
Properties=species:S:1:pos:R:3:forces:R:3 energy=-35.41960048321117 pbc="F F F"
Nb       0.00000000       0.00000000       0.00000000       0.00000000       0.00000000       0.10439035
Nb       0.00000000       0.00000000       5.47090909       0.00000000       0.00000000      -0.10439035
2
Properties=species:S:1:pos:R:3:forces:R:3 energy=-35.41352387405373 pbc="F F F"
Nb       0.00000000       0.00000000       0.00000000       0.00000000       0.00000000       0.10229152
Nb       0.00000000       0.00000000       5.52969697       0.00000000       0.00000000      -0.10229152
2
Properties=species:S:1:pos:R:3:forces:R:3 energy=-35.40757451018056 pbc="F F F"
Nb       0.00000000       0.00000000       0.00000000       0.00000000       0.00000000       0.09959181
Nb       0.00000000       0.00000000       5.58848485       0.00000000       0.00000000      -0.09959181
2
Properties=species:S:1:pos:R:3:forces:R:3 energy=-35.401936928916015 pbc="F F F"
Nb       0.00000000       0.00000000       0.00000000       0.00000000       0.00000000       0.09083466
Nb       0.00000000       0.00000000       5.64727273       0.00000000       0.00000000      -0.09083466
2
Properties=species:S:1:pos:R:3:forces:R:3 energy=-35.39706652692942 pbc="F F F"
Nb       0.00000000       0.00000000       0.00000000       0.00000000       0.00000000       0.07365461
Nb       0.00000000       0.00000000       5.70606061       0.00000000       0.00000000      -0.07365461
2
Properties=species:S:1:pos:R:3:forces:R:3 energy=-35.39333097235648 pbc="F F F"
Nb       0.00000000       0.00000000       0.00000000       0.00000000       0.00000000       0.05353906
Nb       0.00000000       0.00000000       5.76484848       0.00000000       0.00000000      -0.05353906
2
Properties=species:S:1:pos:R:3:forces:R:3 energy=-35.39067451619159 pbc="F F F"
Nb       0.00000000       0.00000000       0.00000000       0.00000000       0.00000000       0.03784103
Nb       0.00000000       0.00000000       5.82363636       0.00000000       0.00000000      -0.03784103
2
Properties=species:S:1:pos:R:3:forces:R:3 energy=-35.38883537459512 pbc="F F F"
Nb       0.00000000       0.00000000       0.00000000       0.00000000       0.00000000       0.02488444
Nb       0.00000000       0.00000000       5.88242424       0.00000000       0.00000000      -0.02488444
2
Properties=species:S:1:pos:R:3:forces:R:3 energy=-35.387711955670014 pbc="F F F"
Nb       0.00000000       0.00000000       0.00000000       0.00000000       0.00000000       0.01393758
Nb       0.00000000       0.00000000       5.94121212       0.00000000       0.00000000      -0.01393758
2
Properties=species:S:1:pos:R:3:forces:R:3 energy=-35.387065290900345 pbc="F F F"
Nb       0.00000000       0.00000000       0.00000000       0.00000000       0.00000000       0.00953323
Nb       0.00000000       0.00000000       6.00000000       0.00000000       0.00000000      -0.00953323
