2
Properties=species:S:1:pos:R:3:forces:R:3 energy=-475863.3325528654 pbc="F F F"
Nb       0.00000000       0.00000000       0.00000000       0.00000000       0.00000000 -712558.18750000
Nb       0.00000000       0.00000000       0.10000000       0.00000000       0.00000000  712558.18750000
2
Properties=species:S:1:pos:R:3:forces:R:3 energy=-495032.7700528654 pbc="F F F"
Nb       0.00000000       0.00000000       0.00000000       0.00000000       0.00000000  -83770.07812500
Nb       0.00000000       0.00000000       0.15959596       0.00000000       0.00000000   83770.07812500
2
Properties=species:S:1:pos:R:3:forces:R:3 energy=-491751.5513028654 pbc="F F F"
Nb       0.00000000       0.00000000       0.00000000       0.00000000       0.00000000  190425.17187500
Nb       0.00000000       0.00000000       0.21919192       0.00000000       0.00000000 -190425.17187500
2
Properties=species:S:1:pos:R:3:forces:R:3 energy=-470836.7388028654 pbc="F F F"
Nb       0.00000000       0.00000000       0.00000000       0.00000000       0.00000000  533746.56250000
Nb       0.00000000       0.00000000       0.27878788       0.00000000       0.00000000 -533746.56250000
2
Properties=species:S:1:pos:R:3:forces:R:3 energy=-425183.1763028654 pbc="F F F"
Nb       0.00000000       0.00000000       0.00000000       0.00000000       0.00000000 1021599.62500000
Nb       0.00000000       0.00000000       0.33838384       0.00000000       0.00000000 -1021599.62500000
2
Properties=species:S:1:pos:R:3:forces:R:3 energy=-347171.3013028638 pbc="F F F"
Nb       0.00000000       0.00000000       0.00000000       0.00000000       0.00000000 1599788.87500000
Nb       0.00000000       0.00000000       0.39797980       0.00000000       0.00000000 -1599788.87500000
2
Properties=species:S:1:pos:R:3:forces:R:3 energy=-236584.05130286224 pbc="F F F"
Nb       0.00000000       0.00000000       0.00000000       0.00000000       0.00000000 2068610.25000000
Nb       0.00000000       0.00000000       0.45757576       0.00000000       0.00000000 -2068610.25000000
2
Properties=species:S:1:pos:R:3:forces:R:3 energy=-109040.75442786065 pbc="F F F"
Nb       0.00000000       0.00000000       0.00000000       0.00000000       0.00000000 2114634.25000000
Nb       0.00000000       0.00000000       0.51717172       0.00000000       0.00000000 -2114634.25000000
2
Properties=species:S:1:pos:R:3:forces:R:3 energy=11040.136197144106 pbc="F F F"
Nb       0.00000000       0.00000000       0.00000000       0.00000000       0.00000000 1672582.75000000
Nb       0.00000000       0.00000000       0.57676768       0.00000000       0.00000000 -1672582.75000000
2
Properties=species:S:1:pos:R:3:forces:R:3 energy=76357.83150965044 pbc="F F F"
Nb       0.00000000       0.00000000       0.00000000       0.00000000       0.00000000  610113.62500000
Nb       0.00000000       0.00000000       0.63636364       0.00000000       0.00000000 -610113.62500000
2
Properties=species:S:1:pos:R:3:forces:R:3 energy=75980.06588466153 pbc="F F F"
Nb       0.00000000       0.00000000       0.00000000       0.00000000       0.00000000 -494163.06250000
Nb       0.00000000       0.00000000       0.69595960       0.00000000       0.00000000  494163.06250000
2
Properties=species:S:1:pos:R:3:forces:R:3 energy=36437.97213468054 pbc="F F F"
Nb       0.00000000       0.00000000       0.00000000       0.00000000       0.00000000 -787484.31250000
Nb       0.00000000       0.00000000       0.75555556       0.00000000       0.00000000  787484.31250000
2
Properties=species:S:1:pos:R:3:forces:R:3 energy=7409.292935485544 pbc="F F F"
Nb       0.00000000       0.00000000       0.00000000       0.00000000       0.00000000 -245764.40625000
Nb       0.00000000       0.00000000       0.81515152       0.00000000       0.00000000  245764.40625000
2
Properties=species:S:1:pos:R:3:forces:R:3 energy=826.4286166759022 pbc="F F F"
Nb       0.00000000       0.00000000       0.00000000       0.00000000       0.00000000    5708.73828125
Nb       0.00000000       0.00000000       0.87474747       0.00000000       0.00000000   -5708.73828125
2
Properties=species:S:1:pos:R:3:forces:R:3 energy=851.0129062789524 pbc="F F F"
Nb       0.00000000       0.00000000       0.00000000       0.00000000       0.00000000   -1786.16394043
Nb       0.00000000       0.00000000       0.93434343       0.00000000       0.00000000    1786.16394043
2
Properties=species:S:1:pos:R:3:forces:R:3 energy=694.7096226588221 pbc="F F F"
Nb       0.00000000       0.00000000       0.00000000       0.00000000       0.00000000   -3035.32299805
Nb       0.00000000       0.00000000       0.99393939       0.00000000       0.00000000    3035.32299805
2
Properties=species:S:1:pos:R:3:forces:R:3 energy=518.789029495306 pbc="F F F"
Nb       0.00000000       0.00000000       0.00000000       0.00000000       0.00000000   -2823.40039062
Nb       0.00000000       0.00000000       1.05353535       0.00000000       0.00000000    2823.40039062
2
Properties=species:S:1:pos:R:3:forces:R:3 energy=365.33251717559864 pbc="F F F"
Nb       0.00000000       0.00000000       0.00000000       0.00000000       0.00000000   -2319.81396484
Nb       0.00000000       0.00000000       1.11313131       0.00000000       0.00000000    2319.81396484
2
Properties=species:S:1:pos:R:3:forces:R:3 energy=238.5465218616787 pbc="F F F"
Nb       0.00000000       0.00000000       0.00000000       0.00000000       0.00000000   -2012.44665527
Nb       0.00000000       0.00000000       1.17272727       0.00000000       0.00000000    2012.44665527
2
Properties=species:S:1:pos:R:3:forces:R:3 energy=124.63139146502405 pbc="F F F"
Nb       0.00000000       0.00000000       0.00000000       0.00000000       0.00000000   -1769.65551758
Nb       0.00000000       0.00000000       1.23232323       0.00000000       0.00000000    1769.65551758
2
Properties=species:S:1:pos:R:3:forces:R:3 energy=32.72764037366921 pbc="F F F"
Nb       0.00000000       0.00000000       0.00000000       0.00000000       0.00000000   -1083.33178711
Nb       0.00000000       0.00000000       1.29191919       0.00000000       0.00000000    1083.33178711
2
Properties=species:S:1:pos:R:3:forces:R:3 energy=-4.670518295466495 pbc="F F F"
Nb       0.00000000       0.00000000       0.00000000       0.00000000       0.00000000     107.42980194
Nb       0.00000000       0.00000000       1.35151515       0.00000000       0.00000000    -107.42980194
2
Properties=species:S:1:pos:R:3:forces:R:3 energy=-7.526621745898299 pbc="F F F"
Nb       0.00000000       0.00000000       0.00000000       0.00000000       0.00000000    -176.38990784
Nb       0.00000000       0.00000000       1.41111111       0.00000000       0.00000000     176.38990784
2
Properties=species:S:1:pos:R:3:forces:R:3 energy=-17.21214327258111 pbc="F F F"
Nb       0.00000000       0.00000000       0.00000000       0.00000000       0.00000000    -140.05120850
Nb       0.00000000       0.00000000       1.47070707       0.00000000       0.00000000     140.05120850
2
Properties=species:S:1:pos:R:3:forces:R:3 energy=-24.257064466499347 pbc="F F F"
Nb       0.00000000       0.00000000       0.00000000       0.00000000       0.00000000     -96.94691467
Nb       0.00000000       0.00000000       1.53030303       0.00000000       0.00000000      96.94691467
2
Properties=species:S:1:pos:R:3:forces:R:3 energy=-28.94899822051732 pbc="F F F"
Nb       0.00000000       0.00000000       0.00000000       0.00000000       0.00000000     -63.72555542
Nb       0.00000000       0.00000000       1.58989899       0.00000000       0.00000000      63.72555542
2
Properties=species:S:1:pos:R:3:forces:R:3 energy=-32.29526300282873 pbc="F F F"
Nb       0.00000000       0.00000000       0.00000000       0.00000000       0.00000000     -50.17731094
Nb       0.00000000       0.00000000       1.64949495       0.00000000       0.00000000      50.17731094
2
Properties=species:S:1:pos:R:3:forces:R:3 energy=-34.93444101928918 pbc="F F F"
Nb       0.00000000       0.00000000       0.00000000       0.00000000       0.00000000     -39.56290054
Nb       0.00000000       0.00000000       1.70909091       0.00000000       0.00000000      39.56290054
2
Properties=species:S:1:pos:R:3:forces:R:3 energy=-36.96459477248616 pbc="F F F"
Nb       0.00000000       0.00000000       0.00000000       0.00000000       0.00000000     -27.17847633
Nb       0.00000000       0.00000000       1.76868687       0.00000000       0.00000000      27.17847633
2
Properties=species:S:1:pos:R:3:forces:R:3 energy=-38.173356171749504 pbc="F F F"
Nb       0.00000000       0.00000000       0.00000000       0.00000000       0.00000000     -14.36354065
Nb       0.00000000       0.00000000       1.82828283       0.00000000       0.00000000      14.36354065
2
Properties=species:S:1:pos:R:3:forces:R:3 energy=-38.81822873927199 pbc="F F F"
Nb       0.00000000       0.00000000       0.00000000       0.00000000       0.00000000      -8.35965443
Nb       0.00000000       0.00000000       1.88787879       0.00000000       0.00000000       8.35965443
2
Properties=species:S:1:pos:R:3:forces:R:3 energy=-39.256821260716166 pbc="F F F"
Nb       0.00000000       0.00000000       0.00000000       0.00000000       0.00000000      -6.71824265
Nb       0.00000000       0.00000000       1.94747475       0.00000000       0.00000000       6.71824265
2
Properties=species:S:1:pos:R:3:forces:R:3 energy=-39.62964430149971 pbc="F F F"
Nb       0.00000000       0.00000000       0.00000000       0.00000000       0.00000000      -5.71227074
Nb       0.00000000       0.00000000       2.00707071       0.00000000       0.00000000       5.71227074
2
Properties=species:S:1:pos:R:3:forces:R:3 energy=-39.922606461790245 pbc="F F F"
Nb       0.00000000       0.00000000       0.00000000       0.00000000       0.00000000      -4.00424337
Nb       0.00000000       0.00000000       2.06666667       0.00000000       0.00000000       4.00424337
2
Properties=species:S:1:pos:R:3:forces:R:3 energy=-40.09967433454813 pbc="F F F"
Nb       0.00000000       0.00000000       0.00000000       0.00000000       0.00000000      -1.93471122
Nb       0.00000000       0.00000000       2.12626263       0.00000000       0.00000000       1.93471122
2
Properties=species:S:1:pos:R:3:forces:R:3 energy=-40.15728160073428 pbc="F F F"
Nb       0.00000000       0.00000000       0.00000000       0.00000000       0.00000000      -0.05146676
Nb       0.00000000       0.00000000       2.18585859       0.00000000       0.00000000       0.05146676
2
Properties=species:S:1:pos:R:3:forces:R:3 energy=-40.111935280634704 pbc="F F F"
Nb       0.00000000       0.00000000       0.00000000       0.00000000       0.00000000       1.52799094
Nb       0.00000000       0.00000000       2.24545455       0.00000000       0.00000000      -1.52799094
2
Properties=species:S:1:pos:R:3:forces:R:3 energy=-39.9801734886572 pbc="F F F"
Nb       0.00000000       0.00000000       0.00000000       0.00000000       0.00000000       2.85060811
Nb       0.00000000       0.00000000       2.30505051       0.00000000       0.00000000      -2.85060811
2
Properties=species:S:1:pos:R:3:forces:R:3 energy=-39.778024124874335 pbc="F F F"
Nb       0.00000000       0.00000000       0.00000000       0.00000000       0.00000000       3.87821412
Nb       0.00000000       0.00000000       2.36464646       0.00000000       0.00000000      -3.87821412
2
Properties=species:S:1:pos:R:3:forces:R:3 energy=-39.524743823209185 pbc="F F F"
Nb       0.00000000       0.00000000       0.00000000       0.00000000       0.00000000       4.56602955
Nb       0.00000000       0.00000000       2.42424242       0.00000000       0.00000000      -4.56602955
2
Properties=species:S:1:pos:R:3:forces:R:3 energy=-39.2397400973799 pbc="F F F"
Nb       0.00000000       0.00000000       0.00000000       0.00000000       0.00000000       4.95402241
Nb       0.00000000       0.00000000       2.48383838       0.00000000       0.00000000      -4.95402241
2
Properties=species:S:1:pos:R:3:forces:R:3 energy=-38.93949780680922 pbc="F F F"
Nb       0.00000000       0.00000000       0.00000000       0.00000000       0.00000000       5.07375145
Nb       0.00000000       0.00000000       2.54343434       0.00000000       0.00000000      -5.07375145
2
Properties=species:S:1:pos:R:3:forces:R:3 energy=-38.641795619882316 pbc="F F F"
Nb       0.00000000       0.00000000       0.00000000       0.00000000       0.00000000       4.85229158
Nb       0.00000000       0.00000000       2.60303030       0.00000000       0.00000000      -4.85229158
2
Properties=species:S:1:pos:R:3:forces:R:3 energy=-38.36865297655463 pbc="F F F"
Nb       0.00000000       0.00000000       0.00000000       0.00000000       0.00000000       4.26063156
Nb       0.00000000       0.00000000       2.66262626       0.00000000       0.00000000      -4.26063156
2
Properties=species:S:1:pos:R:3:forces:R:3 energy=-38.13898524165942 pbc="F F F"
Nb       0.00000000       0.00000000       0.00000000       0.00000000       0.00000000       3.40812325
Nb       0.00000000       0.00000000       2.72222222       0.00000000       0.00000000      -3.40812325
2
Properties=species:S:1:pos:R:3:forces:R:3 energy=-37.968118499613055 pbc="F F F"
Nb       0.00000000       0.00000000       0.00000000       0.00000000       0.00000000       2.27358317
Nb       0.00000000       0.00000000       2.78181818       0.00000000       0.00000000      -2.27358317
2
Properties=species:S:1:pos:R:3:forces:R:3 energy=-37.87140500929667 pbc="F F F"
Nb       0.00000000       0.00000000       0.00000000       0.00000000       0.00000000       0.98815298
Nb       0.00000000       0.00000000       2.84141414       0.00000000       0.00000000      -0.98815298
2
Properties=species:S:1:pos:R:3:forces:R:3 energy=-37.8423234040251 pbc="F F F"
Nb       0.00000000       0.00000000       0.00000000       0.00000000       0.00000000       0.09209547
Nb       0.00000000       0.00000000       2.90101010       0.00000000       0.00000000      -0.09209547
2
Properties=species:S:1:pos:R:3:forces:R:3 energy=-37.84722804746318 pbc="F F F"
Nb       0.00000000       0.00000000       0.00000000       0.00000000       0.00000000      -0.15633826
Nb       0.00000000       0.00000000       2.96060606       0.00000000       0.00000000       0.15633826
2
Properties=species:S:1:pos:R:3:forces:R:3 energy=-37.85174355223828 pbc="F F F"
Nb       0.00000000       0.00000000       0.00000000       0.00000000       0.00000000       0.05766227
Nb       0.00000000       0.00000000       3.02020202       0.00000000       0.00000000      -0.05766227
2
Properties=species:S:1:pos:R:3:forces:R:3 energy=-37.836665383215646 pbc="F F F"
Nb       0.00000000       0.00000000       0.00000000       0.00000000       0.00000000       0.46034828
Nb       0.00000000       0.00000000       3.07979798       0.00000000       0.00000000      -0.46034828
2
Properties=species:S:1:pos:R:3:forces:R:3 energy=-37.79715827700907 pbc="F F F"
Nb       0.00000000       0.00000000       0.00000000       0.00000000       0.00000000       0.85209799
Nb       0.00000000       0.00000000       3.13939394       0.00000000       0.00000000      -0.85209799
2
Properties=species:S:1:pos:R:3:forces:R:3 energy=-37.73737369077003 pbc="F F F"
Nb       0.00000000       0.00000000       0.00000000       0.00000000       0.00000000       1.13259244
Nb       0.00000000       0.00000000       3.19898990       0.00000000       0.00000000      -1.13259244
2
Properties=species:S:1:pos:R:3:forces:R:3 energy=-37.664577249002576 pbc="F F F"
Nb       0.00000000       0.00000000       0.00000000       0.00000000       0.00000000       1.29312193
Nb       0.00000000       0.00000000       3.25858586       0.00000000       0.00000000      -1.29312193
2
Properties=species:S:1:pos:R:3:forces:R:3 energy=-37.584830491101485 pbc="F F F"
Nb       0.00000000       0.00000000       0.00000000       0.00000000       0.00000000       1.37390244
Nb       0.00000000       0.00000000       3.31818182       0.00000000       0.00000000      -1.37390244
2
Properties=species:S:1:pos:R:3:forces:R:3 energy=-37.50147324096133 pbc="F F F"
Nb       0.00000000       0.00000000       0.00000000       0.00000000       0.00000000       1.42136395
Nb       0.00000000       0.00000000       3.37777778       0.00000000       0.00000000      -1.42136395
2
Properties=species:S:1:pos:R:3:forces:R:3 energy=-37.41533941102639 pbc="F F F"
Nb       0.00000000       0.00000000       0.00000000       0.00000000       0.00000000       1.47223103
Nb       0.00000000       0.00000000       3.43737374       0.00000000       0.00000000      -1.47223103
2
Properties=species:S:1:pos:R:3:forces:R:3 energy=-37.32543325870812 pbc="F F F"
Nb       0.00000000       0.00000000       0.00000000       0.00000000       0.00000000       1.55070364
Nb       0.00000000       0.00000000       3.49696970       0.00000000       0.00000000      -1.55070364
2
Properties=species:S:1:pos:R:3:forces:R:3 energy=-37.22984177185958 pbc="F F F"
Nb       0.00000000       0.00000000       0.00000000       0.00000000       0.00000000       1.66182911
Nb       0.00000000       0.00000000       3.55656566       0.00000000       0.00000000      -1.66182911
2
Properties=species:S:1:pos:R:3:forces:R:3 energy=-37.12707203532159 pbc="F F F"
Nb       0.00000000       0.00000000       0.00000000       0.00000000       0.00000000       1.78686392
Nb       0.00000000       0.00000000       3.61616162       0.00000000       0.00000000      -1.78686392
2
Properties=species:S:1:pos:R:3:forces:R:3 energy=-37.01724033621301 pbc="F F F"
Nb       0.00000000       0.00000000       0.00000000       0.00000000       0.00000000       1.89314878
Nb       0.00000000       0.00000000       3.67575758       0.00000000       0.00000000      -1.89314878
2
Properties=species:S:1:pos:R:3:forces:R:3 energy=-36.902343240576705 pbc="F F F"
Nb       0.00000000       0.00000000       0.00000000       0.00000000       0.00000000       1.95387638
Nb       0.00000000       0.00000000       3.73535354       0.00000000       0.00000000      -1.95387638
2
Properties=species:S:1:pos:R:3:forces:R:3 energy=-36.78541731079257 pbc="F F F"
Nb       0.00000000       0.00000000       0.00000000       0.00000000       0.00000000       1.96167421
Nb       0.00000000       0.00000000       3.79494949       0.00000000       0.00000000      -1.96167421
2
Properties=species:S:1:pos:R:3:forces:R:3 energy=-36.66938043864053 pbc="F F F"
Nb       0.00000000       0.00000000       0.00000000       0.00000000       0.00000000       1.92667723
Nb       0.00000000       0.00000000       3.85454545       0.00000000       0.00000000      -1.92667723
2
Properties=species:S:1:pos:R:3:forces:R:3 energy=-36.556322485839424 pbc="F F F"
Nb       0.00000000       0.00000000       0.00000000       0.00000000       0.00000000       1.86387300
Nb       0.00000000       0.00000000       3.91414141       0.00000000       0.00000000      -1.86387300
2
Properties=species:S:1:pos:R:3:forces:R:3 energy=-36.44758570947174 pbc="F F F"
Nb       0.00000000       0.00000000       0.00000000       0.00000000       0.00000000       1.78239524
Nb       0.00000000       0.00000000       3.97373737       0.00000000       0.00000000      -1.78239524
2
Properties=species:S:1:pos:R:3:forces:R:3 energy=-36.34419945057039 pbc="F F F"
Nb       0.00000000       0.00000000       0.00000000       0.00000000       0.00000000       1.68451011
Nb       0.00000000       0.00000000       4.03333333       0.00000000       0.00000000      -1.68451011
2
Properties=species:S:1:pos:R:3:forces:R:3 energy=-36.24712062160545 pbc="F F F"
Nb       0.00000000       0.00000000       0.00000000       0.00000000       0.00000000       1.57097363
Nb       0.00000000       0.00000000       4.09292929       0.00000000       0.00000000      -1.57097363
2
Properties=species:S:1:pos:R:3:forces:R:3 energy=-36.15719164977945 pbc="F F F"
Nb       0.00000000       0.00000000       0.00000000       0.00000000       0.00000000       1.44556797
Nb       0.00000000       0.00000000       4.15252525       0.00000000       0.00000000      -1.44556797
2
Properties=species:S:1:pos:R:3:forces:R:3 energy=-36.07491172190444 pbc="F F F"
Nb       0.00000000       0.00000000       0.00000000       0.00000000       0.00000000       1.31561315
Nb       0.00000000       0.00000000       4.21212121       0.00000000       0.00000000      -1.31561315
2
Properties=species:S:1:pos:R:3:forces:R:3 energy=-36.00029172136769 pbc="F F F"
Nb       0.00000000       0.00000000       0.00000000       0.00000000       0.00000000       1.18999004
Nb       0.00000000       0.00000000       4.27171717       0.00000000       0.00000000      -1.18999004
2
Properties=species:S:1:pos:R:3:forces:R:3 energy=-35.932827601278596 pbc="F F F"
Nb       0.00000000       0.00000000       0.00000000       0.00000000       0.00000000       1.07671297
Nb       0.00000000       0.00000000       4.33131313       0.00000000       0.00000000      -1.07671297
2
Properties=species:S:1:pos:R:3:forces:R:3 energy=-35.87160718015299 pbc="F F F"
Nb       0.00000000       0.00000000       0.00000000       0.00000000       0.00000000       0.98099285
Nb       0.00000000       0.00000000       4.39090909       0.00000000       0.00000000      -0.98099285
2
Properties=species:S:1:pos:R:3:forces:R:3 energy=-35.8155275923286 pbc="F F F"
Nb       0.00000000       0.00000000       0.00000000       0.00000000       0.00000000       0.90393031
Nb       0.00000000       0.00000000       4.45050505       0.00000000       0.00000000      -0.90393031
2
Properties=species:S:1:pos:R:3:forces:R:3 energy=-35.76356233261269 pbc="F F F"
Nb       0.00000000       0.00000000       0.00000000       0.00000000       0.00000000       0.84203672
Nb       0.00000000       0.00000000       4.51010101       0.00000000       0.00000000      -0.84203672
2
Properties=species:S:1:pos:R:3:forces:R:3 energy=-35.71500156003513 pbc="F F F"
Nb       0.00000000       0.00000000       0.00000000       0.00000000       0.00000000       0.78812593
Nb       0.00000000       0.00000000       4.56969697       0.00000000       0.00000000      -0.78812593
2
Properties=species:S:1:pos:R:3:forces:R:3 energy=-35.669635247666555 pbc="F F F"
Nb       0.00000000       0.00000000       0.00000000       0.00000000       0.00000000       0.73364019
Nb       0.00000000       0.00000000       4.62929293       0.00000000       0.00000000      -0.73364019
2
Properties=species:S:1:pos:R:3:forces:R:3 energy=-35.627711224116375 pbc="F F F"
Nb       0.00000000       0.00000000       0.00000000       0.00000000       0.00000000       0.67165339
Nb       0.00000000       0.00000000       4.68888889       0.00000000       0.00000000      -0.67165339
2
Properties=species:S:1:pos:R:3:forces:R:3 energy=-35.5897902055331 pbc="F F F"
Nb       0.00000000       0.00000000       0.00000000       0.00000000       0.00000000       0.59914553
Nb       0.00000000       0.00000000       4.74848485       0.00000000       0.00000000      -0.59914553
2
Properties=species:S:1:pos:R:3:forces:R:3 energy=-35.556478776299315 pbc="F F F"
Nb       0.00000000       0.00000000       0.00000000       0.00000000       0.00000000       0.51767230
Nb       0.00000000       0.00000000       4.80808081       0.00000000       0.00000000      -0.51767230
2
Properties=species:S:1:pos:R:3:forces:R:3 energy=-35.528170021295765 pbc="F F F"
Nb       0.00000000       0.00000000       0.00000000       0.00000000       0.00000000       0.43219757
Nb       0.00000000       0.00000000       4.86767677       0.00000000       0.00000000      -0.43219757
2
Properties=species:S:1:pos:R:3:forces:R:3 energy=-35.50491381193917 pbc="F F F"
Nb       0.00000000       0.00000000       0.00000000       0.00000000       0.00000000       0.34909186
Nb       0.00000000       0.00000000       4.92727273       0.00000000       0.00000000      -0.34909186
2
Properties=species:S:1:pos:R:3:forces:R:3 energy=-35.486393935421624 pbc="F F F"
Nb       0.00000000       0.00000000       0.00000000       0.00000000       0.00000000       0.27418679
Nb       0.00000000       0.00000000       4.98686869       0.00000000       0.00000000      -0.27418679
2
Properties=species:S:1:pos:R:3:forces:R:3 energy=-35.47198907918171 pbc="F F F"
Nb       0.00000000       0.00000000       0.00000000       0.00000000       0.00000000       0.21165550
Nb       0.00000000       0.00000000       5.04646465       0.00000000       0.00000000      -0.21165550
2
Properties=species:S:1:pos:R:3:forces:R:3 energy=-35.460879735878684 pbc="F F F"
Nb       0.00000000       0.00000000       0.00000000       0.00000000       0.00000000       0.16361119
Nb       0.00000000       0.00000000       5.10606061       0.00000000       0.00000000      -0.16361119
2
Properties=species:S:1:pos:R:3:forces:R:3 energy=-35.45219310011603 pbc="F F F"
Nb       0.00000000       0.00000000       0.00000000       0.00000000       0.00000000       0.13033696
Nb       0.00000000       0.00000000       5.16565657       0.00000000       0.00000000      -0.13033696
2
Properties=species:S:1:pos:R:3:forces:R:3 energy=-35.445071755167 pbc="F F F"
Nb       0.00000000       0.00000000       0.00000000       0.00000000       0.00000000       0.11065637
Nb       0.00000000       0.00000000       5.22525253       0.00000000       0.00000000      -0.11065637
2
Properties=species:S:1:pos:R:3:forces:R:3 energy=-35.43877663495476 pbc="F F F"
Nb       0.00000000       0.00000000       0.00000000       0.00000000       0.00000000       0.10223628
Nb       0.00000000       0.00000000       5.28484848       0.00000000       0.00000000      -0.10223628
2
Properties=species:S:1:pos:R:3:forces:R:3 energy=-35.432729014232685 pbc="F F F"
Nb       0.00000000       0.00000000       0.00000000       0.00000000       0.00000000       0.10166985
Nb       0.00000000       0.00000000       5.34444444       0.00000000       0.00000000      -0.10166985
2
Properties=species:S:1:pos:R:3:forces:R:3 energy=-35.4265982212789 pbc="F F F"
Nb       0.00000000       0.00000000       0.00000000       0.00000000       0.00000000       0.10418281
Nb       0.00000000       0.00000000       5.40404040       0.00000000       0.00000000      -0.10418281
2
Properties=species:S:1:pos:R:3:forces:R:3 energy=-35.4203550278189 pbc="F F F"
Nb       0.00000000       0.00000000       0.00000000       0.00000000       0.00000000       0.10459151
Nb       0.00000000       0.00000000       5.46363636       0.00000000       0.00000000      -0.10459151
2
Properties=species:S:1:pos:R:3:forces:R:3 energy=-35.4141877272696 pbc="F F F"
Nb       0.00000000       0.00000000       0.00000000       0.00000000       0.00000000       0.10250186
Nb       0.00000000       0.00000000       5.52323232       0.00000000       0.00000000      -0.10250186
2
Properties=species:S:1:pos:R:3:forces:R:3 energy=-35.408139719492176 pbc="F F F"
Nb       0.00000000       0.00000000       0.00000000       0.00000000       0.00000000       0.10001102
Nb       0.00000000       0.00000000       5.58282828       0.00000000       0.00000000      -0.10001102
2
Properties=species:S:1:pos:R:3:forces:R:3 energy=-35.4023803226197 pbc="F F F"
Nb       0.00000000       0.00000000       0.00000000       0.00000000       0.00000000       0.09189984
Nb       0.00000000       0.00000000       5.64242424       0.00000000       0.00000000      -0.09189984
2
Properties=species:S:1:pos:R:3:forces:R:3 energy=-35.39736499826186 pbc="F F F"
Nb       0.00000000       0.00000000       0.00000000       0.00000000       0.00000000       0.07502941
Nb       0.00000000       0.00000000       5.70202020       0.00000000       0.00000000      -0.07502941
2
Properties=species:S:1:pos:R:3:forces:R:3 energy=-35.3935110784787 pbc="F F F"
Nb       0.00000000       0.00000000       0.00000000       0.00000000       0.00000000       0.05456664
Nb       0.00000000       0.00000000       5.76161616       0.00000000       0.00000000      -0.05456664
2
Properties=species:S:1:pos:R:3:forces:R:3 energy=-35.390766671727505 pbc="F F F"
Nb       0.00000000       0.00000000       0.00000000       0.00000000       0.00000000       0.03840627
Nb       0.00000000       0.00000000       5.82121212       0.00000000       0.00000000      -0.03840627
2
Properties=species:S:1:pos:R:3:forces:R:3 energy=-35.388881506368605 pbc="F F F"
Nb       0.00000000       0.00000000       0.00000000       0.00000000       0.00000000       0.02521743
Nb       0.00000000       0.00000000       5.88080808       0.00000000       0.00000000      -0.02521743
2
Properties=species:S:1:pos:R:3:forces:R:3 energy=-35.38772353786719 pbc="F F F"
Nb       0.00000000       0.00000000       0.00000000       0.00000000       0.00000000       0.01406052
Nb       0.00000000       0.00000000       5.94040404       0.00000000       0.00000000      -0.01406052
2
Properties=species:S:1:pos:R:3:forces:R:3 energy=-35.387065290900345 pbc="F F F"
Nb       0.00000000       0.00000000       0.00000000       0.00000000       0.00000000       0.00953323
Nb       0.00000000       0.00000000       6.00000000       0.00000000       0.00000000      -0.00953323
