2
Properties=species:S:1:pos:R:3:forces:R:3 energy=-86671.99167368919 pbc="F F F"
Nd       0.00000000       0.00000000       0.00000000       0.00000000       0.00000000 -184839.43750000
Nd       0.00000000       0.00000000       0.18000000       0.00000000       0.00000000  184839.43750000
2
Properties=species:S:1:pos:R:3:forces:R:3 energy=-92831.64011118919 pbc="F F F"
Nd       0.00000000       0.00000000       0.00000000       0.00000000       0.00000000  -49960.60156250
Nd       0.00000000       0.00000000       0.23878788       0.00000000       0.00000000   49960.60156250
2
Properties=species:S:1:pos:R:3:forces:R:3 energy=-93989.03073618919 pbc="F F F"
Nd       0.00000000       0.00000000       0.00000000       0.00000000       0.00000000    5325.46777344
Nd       0.00000000       0.00000000       0.29757576       0.00000000       0.00000000   -5325.46777344
2
Properties=species:S:1:pos:R:3:forces:R:3 energy=-92467.05417368919 pbc="F F F"
Nd       0.00000000       0.00000000       0.00000000       0.00000000       0.00000000   46104.98828125
Nd       0.00000000       0.00000000       0.35636364       0.00000000       0.00000000  -46104.98828125
2
Properties=species:S:1:pos:R:3:forces:R:3 energy=-88511.31979868919 pbc="F F F"
Nd       0.00000000       0.00000000       0.00000000       0.00000000       0.00000000   89358.54687500
Nd       0.00000000       0.00000000       0.41515152       0.00000000       0.00000000  -89358.54687500
2
Properties=species:S:1:pos:R:3:forces:R:3 energy=-80974.66354868602 pbc="F F F"
Nd       0.00000000       0.00000000       0.00000000       0.00000000       0.00000000  212158.53125000
Nd       0.00000000       0.00000000       0.47393939       0.00000000       0.00000000 -212158.53125000
2
Properties=species:S:1:pos:R:3:forces:R:3 energy=-66796.69479868286 pbc="F F F"
Nd       0.00000000       0.00000000       0.00000000       0.00000000       0.00000000  266768.00000000
Nd       0.00000000       0.00000000       0.53272727       0.00000000       0.00000000 -266768.00000000
2
Properties=species:S:1:pos:R:3:forces:R:3 energy=-50192.78073618285 pbc="F F F"
Nd       0.00000000       0.00000000       0.00000000       0.00000000       0.00000000  291649.46875000
Nd       0.00000000       0.00000000       0.59151515       0.00000000       0.00000000 -291649.46875000
2
Properties=species:S:1:pos:R:3:forces:R:3 energy=-33357.421361176515 pbc="F F F"
Nd       0.00000000       0.00000000       0.00000000       0.00000000       0.00000000  273625.40625000
Nd       0.00000000       0.00000000       0.65030303       0.00000000       0.00000000 -273625.40625000
2
Properties=species:S:1:pos:R:3:forces:R:3 energy=-17927.013158042013 pbc="F F F"
Nd       0.00000000       0.00000000       0.00000000       0.00000000       0.00000000  228547.70312500
Nd       0.00000000       0.00000000       0.70909091       0.00000000       0.00000000 -228547.70312500
2
Properties=species:S:1:pos:R:3:forces:R:3 energy=-7374.987767407511 pbc="F F F"
Nd       0.00000000       0.00000000       0.00000000       0.00000000       0.00000000  130480.34375000
Nd       0.00000000       0.00000000       0.76787879       0.00000000       0.00000000 -130480.34375000
2
Properties=species:S:1:pos:R:3:forces:R:3 energy=1154.7167003881018 pbc="F F F"
Nd       0.00000000       0.00000000       0.00000000       0.00000000       0.00000000   73387.42187500
Nd       0.00000000       0.00000000       0.82666667       0.00000000       0.00000000  -73387.42187500
2
Properties=species:S:1:pos:R:3:forces:R:3 energy=1480.5978039259016 pbc="F F F"
Nd       0.00000000       0.00000000       0.00000000       0.00000000       0.00000000  -30321.27734375
Nd       0.00000000       0.00000000       0.88545455       0.00000000       0.00000000   30321.27734375
2
Properties=species:S:1:pos:R:3:forces:R:3 energy=20.681078805224022 pbc="F F F"
Nd       0.00000000       0.00000000       0.00000000       0.00000000       0.00000000   -9784.11230469
Nd       0.00000000       0.00000000       0.94424242       0.00000000       0.00000000    9784.11230469
2
Properties=species:S:1:pos:R:3:forces:R:3 energy=-38.44207102225264 pbc="F F F"
Nd       0.00000000       0.00000000       0.00000000       0.00000000       0.00000000     294.56393433
Nd       0.00000000       0.00000000       1.00303030       0.00000000       0.00000000    -294.56393433
2
Properties=species:S:1:pos:R:3:forces:R:3 energy=210.45685864021888 pbc="F F F"
Nd       0.00000000       0.00000000       0.00000000       0.00000000       0.00000000    2466.43017578
Nd       0.00000000       0.00000000       1.06181818       0.00000000       0.00000000   -2466.43017578
2
Properties=species:S:1:pos:R:3:forces:R:3 energy=121.99218282242978 pbc="F F F"
Nd       0.00000000       0.00000000       0.00000000       0.00000000       0.00000000    -597.22259521
Nd       0.00000000       0.00000000       1.12060606       0.00000000       0.00000000     597.22259521
2
Properties=species:S:1:pos:R:3:forces:R:3 energy=92.97655793330355 pbc="F F F"
Nd       0.00000000       0.00000000       0.00000000       0.00000000       0.00000000    -441.70437622
Nd       0.00000000       0.00000000       1.17939394       0.00000000       0.00000000     441.70437622
2
Properties=species:S:1:pos:R:3:forces:R:3 energy=64.64921890032444 pbc="F F F"
Nd       0.00000000       0.00000000       0.00000000       0.00000000       0.00000000    -547.16668701
Nd       0.00000000       0.00000000       1.23818182       0.00000000       0.00000000     547.16668701
2
Properties=species:S:1:pos:R:3:forces:R:3 energy=28.84096103058533 pbc="F F F"
Nd       0.00000000       0.00000000       0.00000000       0.00000000       0.00000000    -645.56610107
Nd       0.00000000       0.00000000       1.29696970       0.00000000       0.00000000     645.56610107
2
Properties=species:S:1:pos:R:3:forces:R:3 energy=-7.012615401487727 pbc="F F F"
Nd       0.00000000       0.00000000       0.00000000       0.00000000       0.00000000    -551.02020264
Nd       0.00000000       0.00000000       1.35575758       0.00000000       0.00000000     551.02020264
2
Properties=species:S:1:pos:R:3:forces:R:3 energy=-35.47149649455756 pbc="F F F"
Nd       0.00000000       0.00000000       0.00000000       0.00000000       0.00000000    -372.02389526
Nd       0.00000000       0.00000000       1.41454545       0.00000000       0.00000000     372.02389526
2
Properties=species:S:1:pos:R:3:forces:R:3 energy=-45.09893373131422 pbc="F F F"
Nd       0.00000000       0.00000000       0.00000000       0.00000000       0.00000000     -67.19306183
Nd       0.00000000       0.00000000       1.47333333       0.00000000       0.00000000      67.19306183
2
Properties=species:S:1:pos:R:3:forces:R:3 energy=-49.11645039033415 pbc="F F F"
Nd       0.00000000       0.00000000       0.00000000       0.00000000       0.00000000     -69.34593964
Nd       0.00000000       0.00000000       1.53212121       0.00000000       0.00000000      69.34593964
2
Properties=species:S:1:pos:R:3:forces:R:3 energy=-52.99049619015927 pbc="F F F"
Nd       0.00000000       0.00000000       0.00000000       0.00000000       0.00000000     -60.54151535
Nd       0.00000000       0.00000000       1.59090909       0.00000000       0.00000000      60.54151535
2
Properties=species:S:1:pos:R:3:forces:R:3 energy=-56.06055246871022 pbc="F F F"
Nd       0.00000000       0.00000000       0.00000000       0.00000000       0.00000000     -43.25263214
Nd       0.00000000       0.00000000       1.64969697       0.00000000       0.00000000      43.25263214
2
Properties=species:S:1:pos:R:3:forces:R:3 energy=-58.11229807367329 pbc="F F F"
Nd       0.00000000       0.00000000       0.00000000       0.00000000       0.00000000     -27.38474464
Nd       0.00000000       0.00000000       1.70848485       0.00000000       0.00000000      27.38474464
2
Properties=species:S:1:pos:R:3:forces:R:3 energy=-59.3832894340576 pbc="F F F"
Nd       0.00000000       0.00000000       0.00000000       0.00000000       0.00000000     -16.71356583
Nd       0.00000000       0.00000000       1.76727273       0.00000000       0.00000000      16.71356583
2
Properties=species:S:1:pos:R:3:forces:R:3 energy=-60.16791054304524 pbc="F F F"
Nd       0.00000000       0.00000000       0.00000000       0.00000000       0.00000000     -10.58771420
Nd       0.00000000       0.00000000       1.82606061       0.00000000       0.00000000      10.58771420
2
Properties=species:S:1:pos:R:3:forces:R:3 energy=-60.680413840881805 pbc="F F F"
Nd       0.00000000       0.00000000       0.00000000       0.00000000       0.00000000      -7.18209171
Nd       0.00000000       0.00000000       1.88484848       0.00000000       0.00000000       7.18209171
2
Properties=species:S:1:pos:R:3:forces:R:3 energy=-61.04532245873089 pbc="F F F"
Nd       0.00000000       0.00000000       0.00000000       0.00000000       0.00000000      -5.47094679
Nd       0.00000000       0.00000000       1.94363636       0.00000000       0.00000000       5.47094679
2
Properties=species:S:1:pos:R:3:forces:R:3 energy=-61.34657116152109 pbc="F F F"
Nd       0.00000000       0.00000000       0.00000000       0.00000000       0.00000000      -4.92045116
Nd       0.00000000       0.00000000       2.00242424       0.00000000       0.00000000       4.92045116
2
Properties=species:S:1:pos:R:3:forces:R:3 energy=-61.63283543567663 pbc="F F F"
Nd       0.00000000       0.00000000       0.00000000       0.00000000       0.00000000      -4.82446957
Nd       0.00000000       0.00000000       2.06121212       0.00000000       0.00000000       4.82446957
2
Properties=species:S:1:pos:R:3:forces:R:3 energy=-61.90769343555446 pbc="F F F"
Nd       0.00000000       0.00000000       0.00000000       0.00000000       0.00000000      -4.43676662
Nd       0.00000000       0.00000000       2.12000000       0.00000000       0.00000000       4.43676662
2
Properties=species:S:1:pos:R:3:forces:R:3 energy=-62.14363352962883 pbc="F F F"
Nd       0.00000000       0.00000000       0.00000000       0.00000000       0.00000000      -3.51255655
Nd       0.00000000       0.00000000       2.17878788       0.00000000       0.00000000       3.51255655
2
Properties=species:S:1:pos:R:3:forces:R:3 energy=-62.31474623705082 pbc="F F F"
Nd       0.00000000       0.00000000       0.00000000       0.00000000       0.00000000      -2.28615379
Nd       0.00000000       0.00000000       2.23757576       0.00000000       0.00000000       2.28615379
2
Properties=species:S:1:pos:R:3:forces:R:3 energy=-62.4125552561467 pbc="F F F"
Nd       0.00000000       0.00000000       0.00000000       0.00000000       0.00000000      -1.06237388
Nd       0.00000000       0.00000000       2.29636364       0.00000000       0.00000000       1.06237388
2
Properties=species:S:1:pos:R:3:forces:R:3 energy=-62.4437972884346 pbc="F F F"
Nd       0.00000000       0.00000000       0.00000000       0.00000000       0.00000000      -0.04619457
Nd       0.00000000       0.00000000       2.35515152       0.00000000       0.00000000       0.04619457
2
Properties=species:S:1:pos:R:3:forces:R:3 energy=-62.424032420704556 pbc="F F F"
Nd       0.00000000       0.00000000       0.00000000       0.00000000       0.00000000       0.66437489
Nd       0.00000000       0.00000000       2.41393939       0.00000000       0.00000000      -0.66437489
2
Properties=species:S:1:pos:R:3:forces:R:3 energy=-62.37196404079001 pbc="F F F"
Nd       0.00000000       0.00000000       0.00000000       0.00000000       0.00000000       1.05628073
Nd       0.00000000       0.00000000       2.47272727       0.00000000       0.00000000      -1.05628073
2
Properties=species:S:1:pos:R:3:forces:R:3 energy=-62.305235069691506 pbc="F F F"
Nd       0.00000000       0.00000000       0.00000000       0.00000000       0.00000000       1.17383051
Nd       0.00000000       0.00000000       2.53151515       0.00000000       0.00000000      -1.17383051
2
Properties=species:S:1:pos:R:3:forces:R:3 energy=-62.23790639283112 pbc="F F F"
Nd       0.00000000       0.00000000       0.00000000       0.00000000       0.00000000       1.08947110
Nd       0.00000000       0.00000000       2.59030303       0.00000000       0.00000000      -1.08947110
2
Properties=species:S:1:pos:R:3:forces:R:3 energy=-62.1796596263378 pbc="F F F"
Nd       0.00000000       0.00000000       0.00000000       0.00000000       0.00000000       0.87570208
Nd       0.00000000       0.00000000       2.64909091       0.00000000       0.00000000      -0.87570208
2
Properties=species:S:1:pos:R:3:forces:R:3 energy=-62.136361689074896 pbc="F F F"
Nd       0.00000000       0.00000000       0.00000000       0.00000000       0.00000000       0.58916456
Nd       0.00000000       0.00000000       2.70787879       0.00000000       0.00000000      -0.58916456
2
Properties=species:S:1:pos:R:3:forces:R:3 energy=-62.110980323648214 pbc="F F F"
Nd       0.00000000       0.00000000       0.00000000       0.00000000       0.00000000       0.27245337
Nd       0.00000000       0.00000000       2.76666667       0.00000000       0.00000000      -0.27245337
2
Properties=species:S:1:pos:R:3:forces:R:3 energy=-62.10417916700472 pbc="F F F"
Nd       0.00000000       0.00000000       0.00000000       0.00000000       0.00000000      -0.03678347
Nd       0.00000000       0.00000000       2.82545455       0.00000000       0.00000000       0.03678347
2
Properties=species:S:1:pos:R:3:forces:R:3 energy=-62.11444750082476 pbc="F F F"
Nd       0.00000000       0.00000000       0.00000000       0.00000000       0.00000000      -0.30245280
Nd       0.00000000       0.00000000       2.88424242       0.00000000       0.00000000       0.30245280
2
Properties=species:S:1:pos:R:3:forces:R:3 energy=-62.138283290466475 pbc="F F F"
Nd       0.00000000       0.00000000       0.00000000       0.00000000       0.00000000      -0.49407506
Nd       0.00000000       0.00000000       2.94303030       0.00000000       0.00000000       0.49407506
2
Properties=species:S:1:pos:R:3:forces:R:3 energy=-62.17070062206558 pbc="F F F"
Nd       0.00000000       0.00000000       0.00000000       0.00000000       0.00000000      -0.59239089
Nd       0.00000000       0.00000000       3.00181818       0.00000000       0.00000000       0.59239089
2
Properties=species:S:1:pos:R:3:forces:R:3 energy=-62.2059925532894 pbc="F F F"
Nd       0.00000000       0.00000000       0.00000000       0.00000000       0.00000000      -0.59219837
Nd       0.00000000       0.00000000       3.06060606       0.00000000       0.00000000       0.59219837
2
Properties=species:S:1:pos:R:3:forces:R:3 energy=-62.23856278069727 pbc="F F F"
Nd       0.00000000       0.00000000       0.00000000       0.00000000       0.00000000      -0.50241655
Nd       0.00000000       0.00000000       3.11939394       0.00000000       0.00000000       0.50241655
2
Properties=species:S:1:pos:R:3:forces:R:3 energy=-62.26370761783393 pbc="F F F"
Nd       0.00000000       0.00000000       0.00000000       0.00000000       0.00000000      -0.34353548
Nd       0.00000000       0.00000000       3.17818182       0.00000000       0.00000000       0.34353548
2
Properties=species:S:1:pos:R:3:forces:R:3 energy=-62.27812719950915 pbc="F F F"
Nd       0.00000000       0.00000000       0.00000000       0.00000000       0.00000000      -0.14226161
Nd       0.00000000       0.00000000       3.23696970       0.00000000       0.00000000       0.14226161
2
Properties=species:S:1:pos:R:3:forces:R:3 energy=-62.28011615647239 pbc="F F F"
Nd       0.00000000       0.00000000       0.00000000       0.00000000       0.00000000       0.07540920
Nd       0.00000000       0.00000000       3.29575758       0.00000000       0.00000000      -0.07540920
2
Properties=species:S:1:pos:R:3:forces:R:3 energy=-62.2693195286408 pbc="F F F"
Nd       0.00000000       0.00000000       0.00000000       0.00000000       0.00000000       0.29036620
Nd       0.00000000       0.00000000       3.35454545       0.00000000       0.00000000      -0.29036620
2
Properties=species:S:1:pos:R:3:forces:R:3 energy=-62.24620251901146 pbc="F F F"
Nd       0.00000000       0.00000000       0.00000000       0.00000000       0.00000000       0.49415097
Nd       0.00000000       0.00000000       3.41333333       0.00000000       0.00000000      -0.49415097
2
Properties=species:S:1:pos:R:3:forces:R:3 energy=-62.211390497181455 pbc="F F F"
Nd       0.00000000       0.00000000       0.00000000       0.00000000       0.00000000       0.68954408
Nd       0.00000000       0.00000000       3.47212121       0.00000000       0.00000000      -0.68954408
2
Properties=species:S:1:pos:R:3:forces:R:3 energy=-62.16508923505557 pbc="F F F"
Nd       0.00000000       0.00000000       0.00000000       0.00000000       0.00000000       0.88701129
Nd       0.00000000       0.00000000       3.53090909       0.00000000       0.00000000      -0.88701129
2
Properties=species:S:1:pos:R:3:forces:R:3 energy=-62.106852159627955 pbc="F F F"
Nd       0.00000000       0.00000000       0.00000000       0.00000000       0.00000000       1.09676933
Nd       0.00000000       0.00000000       3.58969697       0.00000000       0.00000000      -1.09676933
2
Properties=species:S:1:pos:R:3:forces:R:3 energy=-62.03588172990521 pbc="F F F"
Nd       0.00000000       0.00000000       0.00000000       0.00000000       0.00000000       1.31881976
Nd       0.00000000       0.00000000       3.64848485       0.00000000       0.00000000      -1.31881976
2
Properties=species:S:1:pos:R:3:forces:R:3 energy=-61.95185724205216 pbc="F F F"
Nd       0.00000000       0.00000000       0.00000000       0.00000000       0.00000000       1.53700376
Nd       0.00000000       0.00000000       3.70727273       0.00000000       0.00000000      -1.53700376
2
Properties=species:S:1:pos:R:3:forces:R:3 energy=-61.855804570864876 pbc="F F F"
Nd       0.00000000       0.00000000       0.00000000       0.00000000       0.00000000       1.72255504
Nd       0.00000000       0.00000000       3.76606061       0.00000000       0.00000000      -1.72255504
2
Properties=species:S:1:pos:R:3:forces:R:3 energy=-61.750553917603554 pbc="F F F"
Nd       0.00000000       0.00000000       0.00000000       0.00000000       0.00000000       1.84585404
Nd       0.00000000       0.00000000       3.82484848       0.00000000       0.00000000      -1.84585404
2
Properties=species:S:1:pos:R:3:forces:R:3 energy=-61.64036599817077 pbc="F F F"
Nd       0.00000000       0.00000000       0.00000000       0.00000000       0.00000000       1.88882136
Nd       0.00000000       0.00000000       3.88363636       0.00000000       0.00000000      -1.88882136
2
Properties=species:S:1:pos:R:3:forces:R:3 energy=-61.530081349782236 pbc="F F F"
Nd       0.00000000       0.00000000       0.00000000       0.00000000       0.00000000       1.85027325
Nd       0.00000000       0.00000000       3.94242424       0.00000000       0.00000000      -1.85027325
2
Properties=species:S:1:pos:R:3:forces:R:3 energy=-61.42416664081118 pbc="F F F"
Nd       0.00000000       0.00000000       0.00000000       0.00000000       0.00000000       1.74319899
Nd       0.00000000       0.00000000       4.00121212       0.00000000       0.00000000      -1.74319899
2
Properties=species:S:1:pos:R:3:forces:R:3 energy=-61.3260661880924 pbc="F F F"
Nd       0.00000000       0.00000000       0.00000000       0.00000000       0.00000000       1.58793795
Nd       0.00000000       0.00000000       4.06000000       0.00000000       0.00000000      -1.58793795
2
Properties=species:S:1:pos:R:3:forces:R:3 energy=-61.23798452551369 pbc="F F F"
Nd       0.00000000       0.00000000       0.00000000       0.00000000       0.00000000       1.40595543
Nd       0.00000000       0.00000000       4.11878788       0.00000000       0.00000000      -1.40595543
2
Properties=species:S:1:pos:R:3:forces:R:3 energy=-61.160913094225464 pbc="F F F"
Nd       0.00000000       0.00000000       0.00000000       0.00000000       0.00000000       1.21609068
Nd       0.00000000       0.00000000       4.17757576       0.00000000       0.00000000      -1.21609068
2
Properties=species:S:1:pos:R:3:forces:R:3 energy=-61.094862951845215 pbc="F F F"
Nd       0.00000000       0.00000000       0.00000000       0.00000000       0.00000000       1.03310585
Nd       0.00000000       0.00000000       4.23636364       0.00000000       0.00000000      -1.03310585
2
Properties=species:S:1:pos:R:3:forces:R:3 energy=-61.03909745631943 pbc="F F F"
Nd       0.00000000       0.00000000       0.00000000       0.00000000       0.00000000       0.86760974
Nd       0.00000000       0.00000000       4.29515152       0.00000000       0.00000000      -0.86760974
2
Properties=species:S:1:pos:R:3:forces:R:3 energy=-60.99237260135484 pbc="F F F"
Nd       0.00000000       0.00000000       0.00000000       0.00000000       0.00000000       0.72664827
Nd       0.00000000       0.00000000       4.35393939       0.00000000       0.00000000      -0.72664827
2
Properties=species:S:1:pos:R:3:forces:R:3 energy=-60.95310105790421 pbc="F F F"
Nd       0.00000000       0.00000000       0.00000000       0.00000000       0.00000000       0.61442065
Nd       0.00000000       0.00000000       4.41272727       0.00000000       0.00000000      -0.61442065
2
Properties=species:S:1:pos:R:3:forces:R:3 energy=-60.91952762806593 pbc="F F F"
Nd       0.00000000       0.00000000       0.00000000       0.00000000       0.00000000       0.53296596
Nd       0.00000000       0.00000000       4.47151515       0.00000000       0.00000000      -0.53296596
2
Properties=species:S:1:pos:R:3:forces:R:3 energy=-60.889824634690285 pbc="F F F"
Nd       0.00000000       0.00000000       0.00000000       0.00000000       0.00000000       0.48254651
Nd       0.00000000       0.00000000       4.53030303       0.00000000       0.00000000      -0.48254651
2
Properties=species:S:1:pos:R:3:forces:R:3 energy=-60.8622101801626 pbc="F F F"
Nd       0.00000000       0.00000000       0.00000000       0.00000000       0.00000000       0.46164036
Nd       0.00000000       0.00000000       4.58909091       0.00000000       0.00000000      -0.46164036
2
Properties=species:S:1:pos:R:3:forces:R:3 energy=-60.83503585592992 pbc="F F F"
Nd       0.00000000       0.00000000       0.00000000       0.00000000       0.00000000       0.46678573
Nd       0.00000000       0.00000000       4.64787879       0.00000000       0.00000000      -0.46678573
2
Properties=species:S:1:pos:R:3:forces:R:3 energy=-60.80692412545554 pbc="F F F"
Nd       0.00000000       0.00000000       0.00000000       0.00000000       0.00000000       0.49243504
Nd       0.00000000       0.00000000       4.70666667       0.00000000       0.00000000      -0.49243504
2
Properties=species:S:1:pos:R:3:forces:R:3 energy=-60.77687889341891 pbc="F F F"
Nd       0.00000000       0.00000000       0.00000000       0.00000000       0.00000000       0.53129268
Nd       0.00000000       0.00000000       4.76545455       0.00000000       0.00000000      -0.53129268
2
Properties=species:S:1:pos:R:3:forces:R:3 energy=-60.74436185351396 pbc="F F F"
Nd       0.00000000       0.00000000       0.00000000       0.00000000       0.00000000       0.57510346
Nd       0.00000000       0.00000000       4.82424242       0.00000000       0.00000000      -0.57510346
2
Properties=species:S:1:pos:R:3:forces:R:3 energy=-60.70932679221403 pbc="F F F"
Nd       0.00000000       0.00000000       0.00000000       0.00000000       0.00000000       0.61573541
Nd       0.00000000       0.00000000       4.88303030       0.00000000       0.00000000      -0.61573541
2
Properties=species:S:1:pos:R:3:forces:R:3 energy=-60.67216238415205 pbc="F F F"
Nd       0.00000000       0.00000000       0.00000000       0.00000000       0.00000000       0.64626735
Nd       0.00000000       0.00000000       4.94181818       0.00000000       0.00000000      -0.64626735
2
Properties=species:S:1:pos:R:3:forces:R:3 energy=-60.63363498116501 pbc="F F F"
Nd       0.00000000       0.00000000       0.00000000       0.00000000       0.00000000       0.66167903
Nd       0.00000000       0.00000000       5.00060606       0.00000000       0.00000000      -0.66167903
2
Properties=species:S:1:pos:R:3:forces:R:3 energy=-60.59471311404495 pbc="F F F"
Nd       0.00000000       0.00000000       0.00000000       0.00000000       0.00000000       0.65939122
Nd       0.00000000       0.00000000       5.05939394       0.00000000       0.00000000      -0.65939122
2
Properties=species:S:1:pos:R:3:forces:R:3 energy=-60.55644927176982 pbc="F F F"
Nd       0.00000000       0.00000000       0.00000000       0.00000000       0.00000000       0.63957912
Nd       0.00000000       0.00000000       5.11818182       0.00000000       0.00000000      -0.63957912
2
Properties=species:S:1:pos:R:3:forces:R:3 energy=-60.519800594892864 pbc="F F F"
Nd       0.00000000       0.00000000       0.00000000       0.00000000       0.00000000       0.60541034
Nd       0.00000000       0.00000000       5.17696970       0.00000000       0.00000000      -0.60541034
2
Properties=species:S:1:pos:R:3:forces:R:3 energy=-60.48544197438351 pbc="F F F"
Nd       0.00000000       0.00000000       0.00000000       0.00000000       0.00000000       0.56276083
Nd       0.00000000       0.00000000       5.23575758       0.00000000       0.00000000      -0.56276083
2
Properties=species:S:1:pos:R:3:forces:R:3 energy=-60.453659221097055 pbc="F F F"
Nd       0.00000000       0.00000000       0.00000000       0.00000000       0.00000000       0.51878828
Nd       0.00000000       0.00000000       5.29454545       0.00000000       0.00000000      -0.51878828
2
Properties=species:S:1:pos:R:3:forces:R:3 energy=-60.42435292798921 pbc="F F F"
Nd       0.00000000       0.00000000       0.00000000       0.00000000       0.00000000       0.47904044
Nd       0.00000000       0.00000000       5.35333333       0.00000000       0.00000000      -0.47904044
2
Properties=species:S:1:pos:R:3:forces:R:3 energy=-60.39726729493128 pbc="F F F"
Nd       0.00000000       0.00000000       0.00000000       0.00000000       0.00000000       0.44212228
Nd       0.00000000       0.00000000       5.41212121       0.00000000       0.00000000      -0.44212228
2
Properties=species:S:1:pos:R:3:forces:R:3 energy=-60.372543326337926 pbc="F F F"
Nd       0.00000000       0.00000000       0.00000000       0.00000000       0.00000000       0.39694357
Nd       0.00000000       0.00000000       5.47090909       0.00000000       0.00000000      -0.39694357
2
Properties=species:S:1:pos:R:3:forces:R:3 energy=-60.35076076115884 pbc="F F F"
Nd       0.00000000       0.00000000       0.00000000       0.00000000       0.00000000       0.34414425
Nd       0.00000000       0.00000000       5.52969697       0.00000000       0.00000000      -0.34414425
2
Properties=species:S:1:pos:R:3:forces:R:3 energy=-60.33200728991381 pbc="F F F"
Nd       0.00000000       0.00000000       0.00000000       0.00000000       0.00000000       0.29391623
Nd       0.00000000       0.00000000       5.58848485       0.00000000       0.00000000      -0.29391623
2
Properties=species:S:1:pos:R:3:forces:R:3 energy=-60.31629819673448 pbc="F F F"
Nd       0.00000000       0.00000000       0.00000000       0.00000000       0.00000000       0.23927362
Nd       0.00000000       0.00000000       5.64727273       0.00000000       0.00000000      -0.23927362
2
Properties=species:S:1:pos:R:3:forces:R:3 energy=-60.3039311198744 pbc="F F F"
Nd       0.00000000       0.00000000       0.00000000       0.00000000       0.00000000       0.18293141
Nd       0.00000000       0.00000000       5.70606061       0.00000000       0.00000000      -0.18293141
2
Properties=species:S:1:pos:R:3:forces:R:3 energy=-60.29427678634021 pbc="F F F"
Nd       0.00000000       0.00000000       0.00000000       0.00000000       0.00000000       0.15193076
Nd       0.00000000       0.00000000       5.76484848       0.00000000       0.00000000      -0.15193076
2
Properties=species:S:1:pos:R:3:forces:R:3 energy=-60.285424273556316 pbc="F F F"
Nd       0.00000000       0.00000000       0.00000000       0.00000000       0.00000000       0.14959684
Nd       0.00000000       0.00000000       5.82363636       0.00000000       0.00000000      -0.14959684
2
Properties=species:S:1:pos:R:3:forces:R:3 energy=-60.27750357266939 pbc="F F F"
Nd       0.00000000       0.00000000       0.00000000       0.00000000       0.00000000       0.11088014
Nd       0.00000000       0.00000000       5.88242424       0.00000000       0.00000000      -0.11088014
2
Properties=species:S:1:pos:R:3:forces:R:3 energy=-60.27305184700319 pbc="F F F"
Nd       0.00000000       0.00000000       0.00000000       0.00000000       0.00000000       0.04061643
Nd       0.00000000       0.00000000       5.94121212       0.00000000       0.00000000      -0.04061643
2
Properties=species:S:1:pos:R:3:forces:R:3 energy=-60.27193603198417 pbc="F F F"
Nd       0.00000000       0.00000000       0.00000000       0.00000000       0.00000000       0.00812506
Nd       0.00000000       0.00000000       6.00000000       0.00000000       0.00000000      -0.00812506
