2
Properties=species:S:1:pos:R:3:forces:R:3 energy=-25990.616216669536 pbc="F F F"
Ni       0.00000000       0.00000000       0.00000000       0.00000000       0.00000000  -41261.83203125
Ni       0.00000000       0.00000000       0.18000000       0.00000000       0.00000000   41261.83203125
2
Properties=species:S:1:pos:R:3:forces:R:3 energy=-26333.344732294536 pbc="F F F"
Ni       0.00000000       0.00000000       0.00000000       0.00000000       0.00000000   24853.42968750
Ni       0.00000000       0.00000000       0.23878788       0.00000000       0.00000000  -24853.42968750
2
Properties=species:S:1:pos:R:3:forces:R:3 energy=-23255.381841669536 pbc="F F F"
Ni       0.00000000       0.00000000       0.00000000       0.00000000       0.00000000   79264.51562500
Ni       0.00000000       0.00000000       0.29757576       0.00000000       0.00000000  -79264.51562500
2
Properties=species:S:1:pos:R:3:forces:R:3 energy=-17221.047857293743 pbc="F F F"
Ni       0.00000000       0.00000000       0.00000000       0.00000000       0.00000000  122130.68750000
Ni       0.00000000       0.00000000       0.35636364       0.00000000       0.00000000 -122130.68750000
2
Properties=species:S:1:pos:R:3:forces:R:3 energy=-9668.532232292951 pbc="F F F"
Ni       0.00000000       0.00000000       0.00000000       0.00000000       0.00000000  126034.03906250
Ni       0.00000000       0.00000000       0.41515152       0.00000000       0.00000000 -126034.03906250
2
Properties=species:S:1:pos:R:3:forces:R:3 energy=-3193.9934139327843 pbc="F F F"
Ni       0.00000000       0.00000000       0.00000000       0.00000000       0.00000000   81347.61718750
Ni       0.00000000       0.00000000       0.47393939       0.00000000       0.00000000  -81347.61718750
2
Properties=species:S:1:pos:R:3:forces:R:3 energy=-382.7981624655646 pbc="F F F"
Ni       0.00000000       0.00000000       0.00000000       0.00000000       0.00000000   19496.22656250
Ni       0.00000000       0.00000000       0.53272727       0.00000000       0.00000000  -19496.22656250
2
Properties=species:S:1:pos:R:3:forces:R:3 energy=147.16500282239028 pbc="F F F"
Ni       0.00000000       0.00000000       0.00000000       0.00000000       0.00000000    -755.53015137
Ni       0.00000000       0.00000000       0.59151515       0.00000000       0.00000000     755.53015137
2
Properties=species:S:1:pos:R:3:forces:R:3 energy=177.71041298497593 pbc="F F F"
Ni       0.00000000       0.00000000       0.00000000       0.00000000       0.00000000     312.33294678
Ni       0.00000000       0.00000000       0.65030303       0.00000000       0.00000000    -312.33294678
2
Properties=species:S:1:pos:R:3:forces:R:3 energy=110.5394153764344 pbc="F F F"
Ni       0.00000000       0.00000000       0.00000000       0.00000000       0.00000000    -660.33654785
Ni       0.00000000       0.00000000       0.70909091       0.00000000       0.00000000     660.33654785
2
Properties=species:S:1:pos:R:3:forces:R:3 energy=95.44991496581937 pbc="F F F"
Ni       0.00000000       0.00000000       0.00000000       0.00000000       0.00000000     -14.98512077
Ni       0.00000000       0.00000000       0.76787879       0.00000000       0.00000000      14.98512077
2
Properties=species:S:1:pos:R:3:forces:R:3 energy=92.63649946302625 pbc="F F F"
Ni       0.00000000       0.00000000       0.00000000       0.00000000       0.00000000     254.25961304
Ni       0.00000000       0.00000000       0.82666667       0.00000000       0.00000000    -254.25961304
2
Properties=species:S:1:pos:R:3:forces:R:3 energy=111.79911241449527 pbc="F F F"
Ni       0.00000000       0.00000000       0.00000000       0.00000000       0.00000000      37.79023743
Ni       0.00000000       0.00000000       0.88545455       0.00000000       0.00000000     -37.79023743
2
Properties=species:S:1:pos:R:3:forces:R:3 energy=102.4608785142587 pbc="F F F"
Ni       0.00000000       0.00000000       0.00000000       0.00000000       0.00000000    -482.64401245
Ni       0.00000000       0.00000000       0.94424242       0.00000000       0.00000000     482.64401245
2
Properties=species:S:1:pos:R:3:forces:R:3 energy=75.98800870852804 pbc="F F F"
Ni       0.00000000       0.00000000       0.00000000       0.00000000       0.00000000    -403.62039185
Ni       0.00000000       0.00000000       1.00303030       0.00000000       0.00000000     403.62039185
2
Properties=species:S:1:pos:R:3:forces:R:3 energy=54.37604743327292 pbc="F F F"
Ni       0.00000000       0.00000000       0.00000000       0.00000000       0.00000000    -335.49914551
Ni       0.00000000       0.00000000       1.06181818       0.00000000       0.00000000     335.49914551
2
Properties=species:S:1:pos:R:3:forces:R:3 energy=36.05908054156821 pbc="F F F"
Ni       0.00000000       0.00000000       0.00000000       0.00000000       0.00000000    -288.40914917
Ni       0.00000000       0.00000000       1.12060606       0.00000000       0.00000000     288.40914917
2
Properties=species:S:1:pos:R:3:forces:R:3 energy=20.852423287915478 pbc="F F F"
Ni       0.00000000       0.00000000       0.00000000       0.00000000       0.00000000    -225.22789001
Ni       0.00000000       0.00000000       1.17939394       0.00000000       0.00000000     225.22789001
2
Properties=species:S:1:pos:R:3:forces:R:3 energy=9.54656392333732 pbc="F F F"
Ni       0.00000000       0.00000000       0.00000000       0.00000000       0.00000000    -163.11486816
Ni       0.00000000       0.00000000       1.23818182       0.00000000       0.00000000     163.11486816
2
Properties=species:S:1:pos:R:3:forces:R:3 energy=1.3722725644614082 pbc="F F F"
Ni       0.00000000       0.00000000       0.00000000       0.00000000       0.00000000    -115.30077362
Ni       0.00000000       0.00000000       1.29696970       0.00000000       0.00000000     115.30077362
2
Properties=species:S:1:pos:R:3:forces:R:3 energy=-4.0702958985400315 pbc="F F F"
Ni       0.00000000       0.00000000       0.00000000       0.00000000       0.00000000     -72.24134827
Ni       0.00000000       0.00000000       1.35575758       0.00000000       0.00000000      72.24134827
2
Properties=species:S:1:pos:R:3:forces:R:3 energy=-7.537509622746979 pbc="F F F"
Ni       0.00000000       0.00000000       0.00000000       0.00000000       0.00000000     -49.02996445
Ni       0.00000000       0.00000000       1.41454545       0.00000000       0.00000000      49.02996445
2
Properties=species:S:1:pos:R:3:forces:R:3 energy=-10.091537218213817 pbc="F F F"
Ni       0.00000000       0.00000000       0.00000000       0.00000000       0.00000000     -38.96977997
Ni       0.00000000       0.00000000       1.47333333       0.00000000       0.00000000      38.96977997
2
Properties=species:S:1:pos:R:3:forces:R:3 energy=-12.16940046637211 pbc="F F F"
Ni       0.00000000       0.00000000       0.00000000       0.00000000       0.00000000     -31.73575974
Ni       0.00000000       0.00000000       1.53212121       0.00000000       0.00000000      31.73575974
2
Properties=species:S:1:pos:R:3:forces:R:3 energy=-13.812846127721292 pbc="F F F"
Ni       0.00000000       0.00000000       0.00000000       0.00000000       0.00000000     -24.11422157
Ni       0.00000000       0.00000000       1.59090909       0.00000000       0.00000000      24.11422157
2
Properties=species:S:1:pos:R:3:forces:R:3 energy=-15.010185348786495 pbc="F F F"
Ni       0.00000000       0.00000000       0.00000000       0.00000000       0.00000000     -16.77946091
Ni       0.00000000       0.00000000       1.64969697       0.00000000       0.00000000      16.77946091
2
Properties=species:S:1:pos:R:3:forces:R:3 energy=-15.813952976607526 pbc="F F F"
Ni       0.00000000       0.00000000       0.00000000       0.00000000       0.00000000     -10.85810184
Ni       0.00000000       0.00000000       1.70848485       0.00000000       0.00000000      10.85810184
2
Properties=species:S:1:pos:R:3:forces:R:3 energy=-16.32298928245447 pbc="F F F"
Ni       0.00000000       0.00000000       0.00000000       0.00000000       0.00000000      -6.75971365
Ni       0.00000000       0.00000000       1.76727273       0.00000000       0.00000000       6.75971365
2
Properties=species:S:1:pos:R:3:forces:R:3 energy=-16.639704523710353 pbc="F F F"
Ni       0.00000000       0.00000000       0.00000000       0.00000000       0.00000000      -4.22553682
Ni       0.00000000       0.00000000       1.82606061       0.00000000       0.00000000       4.22553682
2
Properties=species:S:1:pos:R:3:forces:R:3 energy=-16.836749932117613 pbc="F F F"
Ni       0.00000000       0.00000000       0.00000000       0.00000000       0.00000000      -2.55859876
Ni       0.00000000       0.00000000       1.88484848       0.00000000       0.00000000       2.55859876
2
Properties=species:S:1:pos:R:3:forces:R:3 energy=-16.945071668229104 pbc="F F F"
Ni       0.00000000       0.00000000       0.00000000       0.00000000       0.00000000      -1.14366460
Ni       0.00000000       0.00000000       1.94363636       0.00000000       0.00000000       1.14366460
2
Properties=species:S:1:pos:R:3:forces:R:3 energy=-16.973935894450538 pbc="F F F"
Ni       0.00000000       0.00000000       0.00000000       0.00000000       0.00000000       0.12054189
Ni       0.00000000       0.00000000       2.00242424       0.00000000       0.00000000      -0.12054189
2
Properties=species:S:1:pos:R:3:forces:R:3 energy=-16.938511961434997 pbc="F F F"
Ni       0.00000000       0.00000000       0.00000000       0.00000000       0.00000000       0.99975646
Ni       0.00000000       0.00000000       2.06121212       0.00000000       0.00000000      -0.99975646
2
Properties=species:S:1:pos:R:3:forces:R:3 energy=-16.867243890005803 pbc="F F F"
Ni       0.00000000       0.00000000       0.00000000       0.00000000       0.00000000       1.33578360
Ni       0.00000000       0.00000000       2.12000000       0.00000000       0.00000000      -1.33578360
2
Properties=species:S:1:pos:R:3:forces:R:3 energy=-16.789853747265003 pbc="F F F"
Ni       0.00000000       0.00000000       0.00000000       0.00000000       0.00000000       1.24950397
Ni       0.00000000       0.00000000       2.17878788       0.00000000       0.00000000      -1.24950397
2
Properties=species:S:1:pos:R:3:forces:R:3 energy=-16.72284483169901 pbc="F F F"
Ni       0.00000000       0.00000000       0.00000000       0.00000000       0.00000000       1.03225482
Ni       0.00000000       0.00000000       2.23757576       0.00000000       0.00000000      -1.03225482
2
Properties=species:S:1:pos:R:3:forces:R:3 energy=-16.66642433432278 pbc="F F F"
Ni       0.00000000       0.00000000       0.00000000       0.00000000       0.00000000       0.91399449
Ni       0.00000000       0.00000000       2.29636364       0.00000000       0.00000000      -0.91399449
2
Properties=species:S:1:pos:R:3:forces:R:3 energy=-16.61209687560802 pbc="F F F"
Ni       0.00000000       0.00000000       0.00000000       0.00000000       0.00000000       0.95960575
Ni       0.00000000       0.00000000       2.35515152       0.00000000       0.00000000      -0.95960575
2
Properties=species:S:1:pos:R:3:forces:R:3 energy=-16.551325022121993 pbc="F F F"
Ni       0.00000000       0.00000000       0.00000000       0.00000000       0.00000000       1.12010694
Ni       0.00000000       0.00000000       2.41393939       0.00000000       0.00000000      -1.12010694
2
Properties=species:S:1:pos:R:3:forces:R:3 energy=-16.47992640852788 pbc="F F F"
Ni       0.00000000       0.00000000       0.00000000       0.00000000       0.00000000       1.30438745
Ni       0.00000000       0.00000000       2.47272727       0.00000000       0.00000000      -1.30438745
2
Properties=species:S:1:pos:R:3:forces:R:3 energy=-16.39931383899262 pbc="F F F"
Ni       0.00000000       0.00000000       0.00000000       0.00000000       0.00000000       1.42202961
Ni       0.00000000       0.00000000       2.53151515       0.00000000       0.00000000      -1.42202961
2
Properties=species:S:1:pos:R:3:forces:R:3 energy=-16.314700809913386 pbc="F F F"
Ni       0.00000000       0.00000000       0.00000000       0.00000000       0.00000000       1.44107962
Ni       0.00000000       0.00000000       2.59030303       0.00000000       0.00000000      -1.44107962
2
Properties=species:S:1:pos:R:3:forces:R:3 energy=-16.23135942315198 pbc="F F F"
Ni       0.00000000       0.00000000       0.00000000       0.00000000       0.00000000       1.38477087
Ni       0.00000000       0.00000000       2.64909091       0.00000000       0.00000000      -1.38477087
2
Properties=species:S:1:pos:R:3:forces:R:3 energy=-16.152674931671815 pbc="F F F"
Ni       0.00000000       0.00000000       0.00000000       0.00000000       0.00000000       1.28778934
Ni       0.00000000       0.00000000       2.70787879       0.00000000       0.00000000      -1.28778934
2
Properties=species:S:1:pos:R:3:forces:R:3 energy=-16.080237870878808 pbc="F F F"
Ni       0.00000000       0.00000000       0.00000000       0.00000000       0.00000000       1.17567575
Ni       0.00000000       0.00000000       2.76666667       0.00000000       0.00000000      -1.17567575
2
Properties=species:S:1:pos:R:3:forces:R:3 energy=-16.014359271459615 pbc="F F F"
Ni       0.00000000       0.00000000       0.00000000       0.00000000       0.00000000       1.06788194
Ni       0.00000000       0.00000000       2.82545455       0.00000000       0.00000000      -1.06788194
2
Properties=species:S:1:pos:R:3:forces:R:3 energy=-15.954223018651156 pbc="F F F"
Ni       0.00000000       0.00000000       0.00000000       0.00000000       0.00000000       0.98323077
Ni       0.00000000       0.00000000       2.88424242       0.00000000       0.00000000      -0.98323077
2
Properties=species:S:1:pos:R:3:forces:R:3 energy=-15.898038259231104 pbc="F F F"
Ni       0.00000000       0.00000000       0.00000000       0.00000000       0.00000000       0.93462777
Ni       0.00000000       0.00000000       2.94303030       0.00000000       0.00000000      -0.93462777
2
Properties=species:S:1:pos:R:3:forces:R:3 energy=-15.843656417233658 pbc="F F F"
Ni       0.00000000       0.00000000       0.00000000       0.00000000       0.00000000       0.92013025
Ni       0.00000000       0.00000000       3.00181818       0.00000000       0.00000000      -0.92013025
2
Properties=species:S:1:pos:R:3:forces:R:3 energy=-15.789500801332828 pbc="F F F"
Ni       0.00000000       0.00000000       0.00000000       0.00000000       0.00000000       0.92347872
Ni       0.00000000       0.00000000       3.06060606       0.00000000       0.00000000      -0.92347872
2
Properties=species:S:1:pos:R:3:forces:R:3 energy=-15.735126630245889 pbc="F F F"
Ni       0.00000000       0.00000000       0.00000000       0.00000000       0.00000000       0.92457581
Ni       0.00000000       0.00000000       3.11939394       0.00000000       0.00000000      -0.92457581
2
Properties=species:S:1:pos:R:3:forces:R:3 energy=-15.681098065767362 pbc="F F F"
Ni       0.00000000       0.00000000       0.00000000       0.00000000       0.00000000       0.91050678
Ni       0.00000000       0.00000000       3.17818182       0.00000000       0.00000000      -0.91050678
2
Properties=species:S:1:pos:R:3:forces:R:3 energy=-15.628406477771655 pbc="F F F"
Ni       0.00000000       0.00000000       0.00000000       0.00000000       0.00000000       0.87975204
Ni       0.00000000       0.00000000       3.23696970       0.00000000       0.00000000      -0.87975204
2
Properties=species:S:1:pos:R:3:forces:R:3 energy=-15.577855335366353 pbc="F F F"
Ni       0.00000000       0.00000000       0.00000000       0.00000000       0.00000000       0.83911604
Ni       0.00000000       0.00000000       3.29575758       0.00000000       0.00000000      -0.83911604
2
Properties=species:S:1:pos:R:3:forces:R:3 energy=-15.529760788002914 pbc="F F F"
Ni       0.00000000       0.00000000       0.00000000       0.00000000       0.00000000       0.79762852
Ni       0.00000000       0.00000000       3.35454545       0.00000000       0.00000000      -0.79762852
2
Properties=species:S:1:pos:R:3:forces:R:3 energy=-15.483956386330917 pbc="F F F"
Ni       0.00000000       0.00000000       0.00000000       0.00000000       0.00000000       0.76202518
Ni       0.00000000       0.00000000       3.41333333       0.00000000       0.00000000      -0.76202518
2
Properties=species:S:1:pos:R:3:forces:R:3 energy=-15.43998674302465 pbc="F F F"
Ni       0.00000000       0.00000000       0.00000000       0.00000000       0.00000000       0.73543495
Ni       0.00000000       0.00000000       3.47212121       0.00000000       0.00000000      -0.73543495
2
Properties=species:S:1:pos:R:3:forces:R:3 energy=-15.397304884761887 pbc="F F F"
Ni       0.00000000       0.00000000       0.00000000       0.00000000       0.00000000       0.71809220
Ni       0.00000000       0.00000000       3.53090909       0.00000000       0.00000000      -0.71809220
2
Properties=species:S:1:pos:R:3:forces:R:3 energy=-15.35540486680686 pbc="F F F"
Ni       0.00000000       0.00000000       0.00000000       0.00000000       0.00000000       0.70847821
Ni       0.00000000       0.00000000       3.58969697       0.00000000       0.00000000      -0.70847821
2
Properties=species:S:1:pos:R:3:forces:R:3 energy=-15.313900901052016 pbc="F F F"
Ni       0.00000000       0.00000000       0.00000000       0.00000000       0.00000000       0.70418304
Ni       0.00000000       0.00000000       3.64848485       0.00000000       0.00000000      -0.70418304
2
Properties=species:S:1:pos:R:3:forces:R:3 energy=-15.272559812623008 pbc="F F F"
Ni       0.00000000       0.00000000       0.00000000       0.00000000       0.00000000       0.70245922
Ni       0.00000000       0.00000000       3.70727273       0.00000000       0.00000000      -0.70245922
2
Properties=species:S:1:pos:R:3:forces:R:3 energy=-15.231310551279279 pbc="F F F"
Ni       0.00000000       0.00000000       0.00000000       0.00000000       0.00000000       0.70061338
Ni       0.00000000       0.00000000       3.76606061       0.00000000       0.00000000      -0.70061338
2
Properties=species:S:1:pos:R:3:forces:R:3 energy=-15.19023277583266 pbc="F F F"
Ni       0.00000000       0.00000000       0.00000000       0.00000000       0.00000000       0.69630277
Ni       0.00000000       0.00000000       3.82484848       0.00000000       0.00000000      -0.69630277
2
Properties=species:S:1:pos:R:3:forces:R:3 energy=-15.14952634607272 pbc="F F F"
Ni       0.00000000       0.00000000       0.00000000       0.00000000       0.00000000       0.68770105
Ni       0.00000000       0.00000000       3.88363636       0.00000000       0.00000000      -0.68770105
2
Properties=species:S:1:pos:R:3:forces:R:3 energy=-15.109484613550253 pbc="F F F"
Ni       0.00000000       0.00000000       0.00000000       0.00000000       0.00000000       0.67357588
Ni       0.00000000       0.00000000       3.94242424       0.00000000       0.00000000      -0.67357588
2
Properties=species:S:1:pos:R:3:forces:R:3 energy=-15.070453419917321 pbc="F F F"
Ni       0.00000000       0.00000000       0.00000000       0.00000000       0.00000000       0.65324569
Ni       0.00000000       0.00000000       4.00121212       0.00000000       0.00000000      -0.65324569
2
Properties=species:S:1:pos:R:3:forces:R:3 energy=-15.032804420972885 pbc="F F F"
Ni       0.00000000       0.00000000       0.00000000       0.00000000       0.00000000       0.62651134
Ni       0.00000000       0.00000000       4.06000000       0.00000000       0.00000000      -0.62651134
2
Properties=species:S:1:pos:R:3:forces:R:3 energy=-14.996912188975745 pbc="F F F"
Ni       0.00000000       0.00000000       0.00000000       0.00000000       0.00000000       0.59357291
Ni       0.00000000       0.00000000       4.11878788       0.00000000       0.00000000      -0.59357291
2
Properties=species:S:1:pos:R:3:forces:R:3 energy=-14.963126564008912 pbc="F F F"
Ni       0.00000000       0.00000000       0.00000000       0.00000000       0.00000000       0.55495542
Ni       0.00000000       0.00000000       4.17757576       0.00000000       0.00000000      -0.55495542
2
Properties=species:S:1:pos:R:3:forces:R:3 energy=-14.931757420533131 pbc="F F F"
Ni       0.00000000       0.00000000       0.00000000       0.00000000       0.00000000       0.51151997
Ni       0.00000000       0.00000000       4.23636364       0.00000000       0.00000000      -0.51151997
2
Properties=species:S:1:pos:R:3:forces:R:3 energy=-14.903053669128896 pbc="F F F"
Ni       0.00000000       0.00000000       0.00000000       0.00000000       0.00000000       0.46448606
Ni       0.00000000       0.00000000       4.29515152       0.00000000       0.00000000      -0.46448606
2
Properties=species:S:1:pos:R:3:forces:R:3 energy=-14.877184227359631 pbc="F F F"
Ni       0.00000000       0.00000000       0.00000000       0.00000000       0.00000000       0.41546962
Ni       0.00000000       0.00000000       4.35393939       0.00000000       0.00000000      -0.41546962
2
Properties=species:S:1:pos:R:3:forces:R:3 energy=-14.854206499418003 pbc="F F F"
Ni       0.00000000       0.00000000       0.00000000       0.00000000       0.00000000       0.36641580
Ni       0.00000000       0.00000000       4.41272727       0.00000000       0.00000000      -0.36641580
2
Properties=species:S:1:pos:R:3:forces:R:3 energy=-14.834060711100827 pbc="F F F"
Ni       0.00000000       0.00000000       0.00000000       0.00000000       0.00000000       0.31944764
Ni       0.00000000       0.00000000       4.47151515       0.00000000       0.00000000      -0.31944764
2
Properties=species:S:1:pos:R:3:forces:R:3 energy=-14.816566071353133 pbc="F F F"
Ni       0.00000000       0.00000000       0.00000000       0.00000000       0.00000000       0.27657288
Ni       0.00000000       0.00000000       4.53030303       0.00000000       0.00000000      -0.27657288
2
Properties=species:S:1:pos:R:3:forces:R:3 energy=-14.801431267437378 pbc="F F F"
Ni       0.00000000       0.00000000       0.00000000       0.00000000       0.00000000       0.23935667
Ni       0.00000000       0.00000000       4.58909091       0.00000000       0.00000000      -0.23935667
2
Properties=species:S:1:pos:R:3:forces:R:3 energy=-14.788296437690745 pbc="F F F"
Ni       0.00000000       0.00000000       0.00000000       0.00000000       0.00000000       0.20862617
Ni       0.00000000       0.00000000       4.64787879       0.00000000       0.00000000      -0.20862617
2
Properties=species:S:1:pos:R:3:forces:R:3 energy=-14.776775115772043 pbc="F F F"
Ni       0.00000000       0.00000000       0.00000000       0.00000000       0.00000000       0.18431857
Ni       0.00000000       0.00000000       4.70666667       0.00000000       0.00000000      -0.18431857
2
Properties=species:S:1:pos:R:3:forces:R:3 energy=-14.766516221076191 pbc="F F F"
Ni       0.00000000       0.00000000       0.00000000       0.00000000       0.00000000       0.16551958
Ni       0.00000000       0.00000000       4.76545455       0.00000000       0.00000000      -0.16551958
2
Properties=species:S:1:pos:R:3:forces:R:3 energy=-14.757235533154471 pbc="F F F"
Ni       0.00000000       0.00000000       0.00000000       0.00000000       0.00000000       0.15069805
Ni       0.00000000       0.00000000       4.82424242       0.00000000       0.00000000      -0.15069805
2
Properties=species:S:1:pos:R:3:forces:R:3 energy=-14.748754776522397 pbc="F F F"
Ni       0.00000000       0.00000000       0.00000000       0.00000000       0.00000000       0.13812603
Ni       0.00000000       0.00000000       4.88303030       0.00000000       0.00000000      -0.13812603
2
Properties=species:S:1:pos:R:3:forces:R:3 energy=-14.740981569740404 pbc="F F F"
Ni       0.00000000       0.00000000       0.00000000       0.00000000       0.00000000       0.12632060
Ni       0.00000000       0.00000000       4.94181818       0.00000000       0.00000000      -0.12632060
2
Properties=species:S:1:pos:R:3:forces:R:3 energy=-14.733903703367943 pbc="F F F"
Ni       0.00000000       0.00000000       0.00000000       0.00000000       0.00000000       0.11443493
Ni       0.00000000       0.00000000       5.00060606       0.00000000       0.00000000      -0.11443493
2
Properties=species:S:1:pos:R:3:forces:R:3 energy=-14.727530968998016 pbc="F F F"
Ni       0.00000000       0.00000000       0.00000000       0.00000000       0.00000000       0.10234611
Ni       0.00000000       0.00000000       5.05939394       0.00000000       0.00000000      -0.10234611
2
Properties=species:S:1:pos:R:3:forces:R:3 energy=-14.721866498342512 pbc="F F F"
Ni       0.00000000       0.00000000       0.00000000       0.00000000       0.00000000       0.09046616
Ni       0.00000000       0.00000000       5.11818182       0.00000000       0.00000000      -0.09046616
2
Properties=species:S:1:pos:R:3:forces:R:3 energy=-14.716881967699997 pbc="F F F"
Ni       0.00000000       0.00000000       0.00000000       0.00000000       0.00000000       0.07924937
Ni       0.00000000       0.00000000       5.17696970       0.00000000       0.00000000      -0.07924937
2
Properties=species:S:1:pos:R:3:forces:R:3 energy=-14.71253667460985 pbc="F F F"
Ni       0.00000000       0.00000000       0.00000000       0.00000000       0.00000000       0.06860030
Ni       0.00000000       0.00000000       5.23575758       0.00000000       0.00000000      -0.06860030
2
Properties=species:S:1:pos:R:3:forces:R:3 energy=-14.708825167715117 pbc="F F F"
Ni       0.00000000       0.00000000       0.00000000       0.00000000       0.00000000       0.05746521
Ni       0.00000000       0.00000000       5.29454545       0.00000000       0.00000000      -0.05746521
2
Properties=species:S:1:pos:R:3:forces:R:3 energy=-14.705815411950141 pbc="F F F"
Ni       0.00000000       0.00000000       0.00000000       0.00000000       0.00000000       0.04461963
Ni       0.00000000       0.00000000       5.35333333       0.00000000       0.00000000      -0.04461963
2
Properties=species:S:1:pos:R:3:forces:R:3 energy=-14.70357914259702 pbc="F F F"
Ni       0.00000000       0.00000000       0.00000000       0.00000000       0.00000000       0.03200723
Ni       0.00000000       0.00000000       5.41212121       0.00000000       0.00000000      -0.03200723
2
Properties=species:S:1:pos:R:3:forces:R:3 energy=-14.701896204072764 pbc="F F F"
Ni       0.00000000       0.00000000       0.00000000       0.00000000       0.00000000       0.02722912
Ni       0.00000000       0.00000000       5.47090909       0.00000000       0.00000000      -0.02722912
2
Properties=species:S:1:pos:R:3:forces:R:3 energy=-14.700165860593744 pbc="F F F"
Ni       0.00000000       0.00000000       0.00000000       0.00000000       0.00000000       0.03254135
Ni       0.00000000       0.00000000       5.52969697       0.00000000       0.00000000      -0.03254135
2
Properties=species:S:1:pos:R:3:forces:R:3 energy=-14.69811251041809 pbc="F F F"
Ni       0.00000000       0.00000000       0.00000000       0.00000000       0.00000000       0.03604112
Ni       0.00000000       0.00000000       5.58848485       0.00000000       0.00000000      -0.03604112
2
Properties=species:S:1:pos:R:3:forces:R:3 energy=-14.696067948892729 pbc="F F F"
Ni       0.00000000       0.00000000       0.00000000       0.00000000       0.00000000       0.03305310
Ni       0.00000000       0.00000000       5.64727273       0.00000000       0.00000000      -0.03305310
2
Properties=species:S:1:pos:R:3:forces:R:3 energy=-14.694156932171088 pbc="F F F"
Ni       0.00000000       0.00000000       0.00000000       0.00000000       0.00000000       0.03352774
Ni       0.00000000       0.00000000       5.70606061       0.00000000       0.00000000      -0.03352774
2
Properties=species:S:1:pos:R:3:forces:R:3 energy=-14.691925252149247 pbc="F F F"
Ni       0.00000000       0.00000000       0.00000000       0.00000000       0.00000000       0.04304244
Ni       0.00000000       0.00000000       5.76484848       0.00000000       0.00000000      -0.04304244
2
Properties=species:S:1:pos:R:3:forces:R:3 energy=-14.689226643284776 pbc="F F F"
Ni       0.00000000       0.00000000       0.00000000       0.00000000       0.00000000       0.04605507
Ni       0.00000000       0.00000000       5.82363636       0.00000000       0.00000000      -0.04605507
2
Properties=species:S:1:pos:R:3:forces:R:3 energy=-14.686876995258235 pbc="F F F"
Ni       0.00000000       0.00000000       0.00000000       0.00000000       0.00000000       0.03188551
Ni       0.00000000       0.00000000       5.88242424       0.00000000       0.00000000      -0.03188551
2
Properties=species:S:1:pos:R:3:forces:R:3 energy=-14.685565280662503 pbc="F F F"
Ni       0.00000000       0.00000000       0.00000000       0.00000000       0.00000000       0.01336764
Ni       0.00000000       0.00000000       5.94121212       0.00000000       0.00000000      -0.01336764
2
Properties=species:S:1:pos:R:3:forces:R:3 energy=-14.685085828171141 pbc="F F F"
Ni       0.00000000       0.00000000       0.00000000       0.00000000       0.00000000       0.00547187
Ni       0.00000000       0.00000000       6.00000000       0.00000000       0.00000000      -0.00547187
