2
Properties=species:S:1:pos:R:3:forces:R:3 energy=15089606.966323523 pbc="F F F"
Np       0.00000000       0.00000000       0.00000000       0.00000000       0.00000000 -1711248.62500000
Np       0.00000000       0.00000000       0.18000000       0.00000000       0.00000000 1711248.62500000
2
Properties=species:S:1:pos:R:3:forces:R:3 energy=14937269.966323523 pbc="F F F"
Np       0.00000000       0.00000000       0.00000000       0.00000000       0.00000000 -3792576.00000000
Np       0.00000000       0.00000000       0.23878788       0.00000000       0.00000000 3792576.00000000
2
Properties=species:S:1:pos:R:3:forces:R:3 energy=14602899.966323523 pbc="F F F"
Np       0.00000000       0.00000000       0.00000000       0.00000000       0.00000000 -7957948.00000000
Np       0.00000000       0.00000000       0.29757576       0.00000000       0.00000000 7957948.00000000
2
Properties=species:S:1:pos:R:3:forces:R:3 energy=13955121.966323523 pbc="F F F"
Np       0.00000000       0.00000000       0.00000000       0.00000000       0.00000000 -14482733.00000000
Np       0.00000000       0.00000000       0.35636364       0.00000000       0.00000000 14482733.00000000
2
Properties=species:S:1:pos:R:3:forces:R:3 energy=12857075.966323523 pbc="F F F"
Np       0.00000000       0.00000000       0.00000000       0.00000000       0.00000000 -23165090.00000000
Np       0.00000000       0.00000000       0.41515152       0.00000000       0.00000000 23165090.00000000
2
Properties=species:S:1:pos:R:3:forces:R:3 energy=11211941.966323527 pbc="F F F"
Np       0.00000000       0.00000000       0.00000000       0.00000000       0.00000000 -32794200.00000000
Np       0.00000000       0.00000000       0.47393939       0.00000000       0.00000000 32794200.00000000
2
Properties=species:S:1:pos:R:3:forces:R:3 energy=9067282.966323528 pbc="F F F"
Np       0.00000000       0.00000000       0.00000000       0.00000000       0.00000000 -39828000.00000000
Np       0.00000000       0.00000000       0.53272727       0.00000000       0.00000000 39828000.00000000
2
Properties=species:S:1:pos:R:3:forces:R:3 energy=6592477.466323532 pbc="F F F"
Np       0.00000000       0.00000000       0.00000000       0.00000000       0.00000000 -43345464.00000000
Np       0.00000000       0.00000000       0.59151515       0.00000000       0.00000000 43345464.00000000
2
Properties=species:S:1:pos:R:3:forces:R:3 energy=4112501.4663235354 pbc="F F F"
Np       0.00000000       0.00000000       0.00000000       0.00000000       0.00000000 -39738228.00000000
Np       0.00000000       0.00000000       0.65030303       0.00000000       0.00000000 39738228.00000000
2
Properties=species:S:1:pos:R:3:forces:R:3 energy=2059037.4663235447 pbc="F F F"
Np       0.00000000       0.00000000       0.00000000       0.00000000       0.00000000 -29190422.00000000
Np       0.00000000       0.00000000       0.70909091       0.00000000       0.00000000 29190422.00000000
2
Properties=species:S:1:pos:R:3:forces:R:3 energy=738842.1538235543 pbc="F F F"
Np       0.00000000       0.00000000       0.00000000       0.00000000       0.00000000 -15731766.00000000
Np       0.00000000       0.00000000       0.76787879       0.00000000       0.00000000 15731766.00000000
2
Properties=species:S:1:pos:R:3:forces:R:3 energy=150334.16944857332 pbc="F F F"
Np       0.00000000       0.00000000       0.00000000       0.00000000       0.00000000 -5183427.50000000
Np       0.00000000       0.00000000       0.82666667       0.00000000       0.00000000 5183427.50000000
2
Properties=species:S:1:pos:R:3:forces:R:3 energy=7014.9555814143405 pbc="F F F"
Np       0.00000000       0.00000000       0.00000000       0.00000000       0.00000000 -621965.62500000
Np       0.00000000       0.00000000       0.88545455       0.00000000       0.00000000  621965.62500000
2
Properties=species:S:1:pos:R:3:forces:R:3 energy=844.0948636757493 pbc="F F F"
Np       0.00000000       0.00000000       0.00000000       0.00000000       0.00000000   -7459.71582031
Np       0.00000000       0.00000000       0.94424242       0.00000000       0.00000000    7459.71582031
2
Properties=species:S:1:pos:R:3:forces:R:3 energy=385.7437284725282 pbc="F F F"
Np       0.00000000       0.00000000       0.00000000       0.00000000       0.00000000   -2847.14453125
Np       0.00000000       0.00000000       1.00303030       0.00000000       0.00000000    2847.14453125
2
Properties=species:S:1:pos:R:3:forces:R:3 energy=280.0780180866659 pbc="F F F"
Np       0.00000000       0.00000000       0.00000000       0.00000000       0.00000000   -2090.16430664
Np       0.00000000       0.00000000       1.06181818       0.00000000       0.00000000    2090.16430664
2
Properties=species:S:1:pos:R:3:forces:R:3 energy=165.0050659048571 pbc="F F F"
Np       0.00000000       0.00000000       0.00000000       0.00000000       0.00000000   -1847.34838867
Np       0.00000000       0.00000000       1.12060606       0.00000000       0.00000000    1847.34838867
2
Properties=species:S:1:pos:R:3:forces:R:3 energy=61.64776621421119 pbc="F F F"
Np       0.00000000       0.00000000       0.00000000       0.00000000       0.00000000   -1587.60668945
Np       0.00000000       0.00000000       1.17939394       0.00000000       0.00000000    1587.60668945
2
Properties=species:S:1:pos:R:3:forces:R:3 energy=-20.16902135979555 pbc="F F F"
Np       0.00000000       0.00000000       0.00000000       0.00000000       0.00000000   -1220.73120117
Np       0.00000000       0.00000000       1.23818182       0.00000000       0.00000000    1220.73120117
2
Properties=species:S:1:pos:R:3:forces:R:3 energy=-81.11035875834327 pbc="F F F"
Np       0.00000000       0.00000000       0.00000000       0.00000000       0.00000000    -867.49053955
Np       0.00000000       0.00000000       1.29696970       0.00000000       0.00000000     867.49053955
2
Properties=species:S:1:pos:R:3:forces:R:3 energy=-122.67669610937364 pbc="F F F"
Np       0.00000000       0.00000000       0.00000000       0.00000000       0.00000000    -478.29144287
Np       0.00000000       0.00000000       1.35575758       0.00000000       0.00000000     478.29144287
2
Properties=species:S:1:pos:R:3:forces:R:3 energy=-136.39388941828182 pbc="F F F"
Np       0.00000000       0.00000000       0.00000000       0.00000000       0.00000000     -29.72481728
Np       0.00000000       0.00000000       1.41454545       0.00000000       0.00000000      29.72481728
2
Properties=species:S:1:pos:R:3:forces:R:3 energy=-137.53784047316572 pbc="F F F"
Np       0.00000000       0.00000000       0.00000000       0.00000000       0.00000000      -8.97205353
Np       0.00000000       0.00000000       1.47333333       0.00000000       0.00000000       8.97205353
2
Properties=species:S:1:pos:R:3:forces:R:3 energy=-139.05880560584248 pbc="F F F"
Np       0.00000000       0.00000000       0.00000000       0.00000000       0.00000000     -30.25019073
Np       0.00000000       0.00000000       1.53212121       0.00000000       0.00000000      30.25019073
2
Properties=species:S:1:pos:R:3:forces:R:3 energy=-140.45152052141427 pbc="F F F"
Np       0.00000000       0.00000000       0.00000000       0.00000000       0.00000000     -23.29361534
Np       0.00000000       0.00000000       1.59090909       0.00000000       0.00000000      23.29361534
2
Properties=species:S:1:pos:R:3:forces:R:3 energy=-142.87650765864385 pbc="F F F"
Np       0.00000000       0.00000000       0.00000000       0.00000000       0.00000000     -64.73332214
Np       0.00000000       0.00000000       1.64969697       0.00000000       0.00000000      64.73332214
2
Properties=species:S:1:pos:R:3:forces:R:3 energy=-148.17733390255896 pbc="F F F"
Np       0.00000000       0.00000000       0.00000000       0.00000000       0.00000000    -114.28462982
Np       0.00000000       0.00000000       1.70848485       0.00000000       0.00000000     114.28462982
2
Properties=species:S:1:pos:R:3:forces:R:3 energy=-155.490412798868 pbc="F F F"
Np       0.00000000       0.00000000       0.00000000       0.00000000       0.00000000    -118.48624420
Np       0.00000000       0.00000000       1.76727273       0.00000000       0.00000000     118.48624420
2
Properties=species:S:1:pos:R:3:forces:R:3 energy=-160.40273468500928 pbc="F F F"
Np       0.00000000       0.00000000       0.00000000       0.00000000       0.00000000     -51.36164093
Np       0.00000000       0.00000000       1.82606061       0.00000000       0.00000000      51.36164093
2
Properties=species:S:1:pos:R:3:forces:R:3 energy=-160.65609030395683 pbc="F F F"
Np       0.00000000       0.00000000       0.00000000       0.00000000       0.00000000      32.88019180
Np       0.00000000       0.00000000       1.88484848       0.00000000       0.00000000     -32.88019180
2
Properties=species:S:1:pos:R:3:forces:R:3 energy=-158.28641407861028 pbc="F F F"
Np       0.00000000       0.00000000       0.00000000       0.00000000       0.00000000      48.17561722
Np       0.00000000       0.00000000       1.94363636       0.00000000       0.00000000     -48.17561722
2
Properties=species:S:1:pos:R:3:forces:R:3 energy=-155.78052238037353 pbc="F F F"
Np       0.00000000       0.00000000       0.00000000       0.00000000       0.00000000      30.49374962
Np       0.00000000       0.00000000       2.00242424       0.00000000       0.00000000     -30.49374962
2
Properties=species:S:1:pos:R:3:forces:R:3 energy=-154.50747950862305 pbc="F F F"
Np       0.00000000       0.00000000       0.00000000       0.00000000       0.00000000      34.56245804
Np       0.00000000       0.00000000       2.06121212       0.00000000       0.00000000     -34.56245804
2
Properties=species:S:1:pos:R:3:forces:R:3 energy=-147.8155062442047 pbc="F F F"
Np       0.00000000       0.00000000       0.00000000       0.00000000       0.00000000     162.22030640
Np       0.00000000       0.00000000       2.12000000       0.00000000       0.00000000    -162.22030640
2
Properties=species:S:1:pos:R:3:forces:R:3 energy=-141.2128270332414 pbc="F F F"
Np       0.00000000       0.00000000       0.00000000       0.00000000       0.00000000      49.26901245
Np       0.00000000       0.00000000       2.17878788       0.00000000       0.00000000     -49.26901245
2
Properties=species:S:1:pos:R:3:forces:R:3 energy=-141.7083834754387 pbc="F F F"
Np       0.00000000       0.00000000       0.00000000       0.00000000       0.00000000     -60.09822845
Np       0.00000000       0.00000000       2.23757576       0.00000000       0.00000000      60.09822845
2
Properties=species:S:1:pos:R:3:forces:R:3 energy=-147.47246361238456 pbc="F F F"
Np       0.00000000       0.00000000       0.00000000       0.00000000       0.00000000    -127.51480865
Np       0.00000000       0.00000000       2.29636364       0.00000000       0.00000000     127.51480865
2
Properties=species:S:1:pos:R:3:forces:R:3 energy=-155.29644922299565 pbc="F F F"
Np       0.00000000       0.00000000       0.00000000       0.00000000       0.00000000    -121.51899719
Np       0.00000000       0.00000000       2.35515152       0.00000000       0.00000000     121.51899719
2
Properties=species:S:1:pos:R:3:forces:R:3 energy=-159.84511990066585 pbc="F F F"
Np       0.00000000       0.00000000       0.00000000       0.00000000       0.00000000     -29.67364693
Np       0.00000000       0.00000000       2.41393939       0.00000000       0.00000000      29.67364693
2
Properties=species:S:1:pos:R:3:forces:R:3 energy=-160.04205956958154 pbc="F F F"
Np       0.00000000       0.00000000       0.00000000       0.00000000       0.00000000       9.66557980
Np       0.00000000       0.00000000       2.47272727       0.00000000       0.00000000      -9.66557980
2
Properties=species:S:1:pos:R:3:forces:R:3 energy=-159.57852181899216 pbc="F F F"
Np       0.00000000       0.00000000       0.00000000       0.00000000       0.00000000       3.75416923
Np       0.00000000       0.00000000       2.53151515       0.00000000       0.00000000      -3.75416923
2
Properties=species:S:1:pos:R:3:forces:R:3 energy=-159.58365695399155 pbc="F F F"
Np       0.00000000       0.00000000       0.00000000       0.00000000       0.00000000      -2.65716887
Np       0.00000000       0.00000000       2.59030303       0.00000000       0.00000000       2.65716887
2
Properties=species:S:1:pos:R:3:forces:R:3 energy=-159.75289945936098 pbc="F F F"
Np       0.00000000       0.00000000       0.00000000       0.00000000       0.00000000      -2.31705284
Np       0.00000000       0.00000000       2.64909091       0.00000000       0.00000000       2.31705284
2
Properties=species:S:1:pos:R:3:forces:R:3 energy=-159.81177415508085 pbc="F F F"
Np       0.00000000       0.00000000       0.00000000       0.00000000       0.00000000       0.37842822
Np       0.00000000       0.00000000       2.70787879       0.00000000       0.00000000      -0.37842822
2
Properties=species:S:1:pos:R:3:forces:R:3 energy=-159.72211868299294 pbc="F F F"
Np       0.00000000       0.00000000       0.00000000       0.00000000       0.00000000       2.44155765
Np       0.00000000       0.00000000       2.76666667       0.00000000       0.00000000      -2.44155765
2
Properties=species:S:1:pos:R:3:forces:R:3 energy=-159.55259754319337 pbc="F F F"
Np       0.00000000       0.00000000       0.00000000       0.00000000       0.00000000       3.15582752
Np       0.00000000       0.00000000       2.82545455       0.00000000       0.00000000      -3.15582752
2
Properties=species:S:1:pos:R:3:forces:R:3 energy=-159.35814220841252 pbc="F F F"
Np       0.00000000       0.00000000       0.00000000       0.00000000       0.00000000       3.47493935
Np       0.00000000       0.00000000       2.88424242       0.00000000       0.00000000      -3.47493935
2
Properties=species:S:1:pos:R:3:forces:R:3 energy=-159.14253674746416 pbc="F F F"
Np       0.00000000       0.00000000       0.00000000       0.00000000       0.00000000       3.83884931
Np       0.00000000       0.00000000       2.94303030       0.00000000       0.00000000      -3.83884931
2
Properties=species:S:1:pos:R:3:forces:R:3 energy=-158.9137461183582 pbc="F F F"
Np       0.00000000       0.00000000       0.00000000       0.00000000       0.00000000       3.85950160
Np       0.00000000       0.00000000       3.00181818       0.00000000       0.00000000      -3.85950160
2
Properties=species:S:1:pos:R:3:forces:R:3 energy=-158.6992970466827 pbc="F F F"
Np       0.00000000       0.00000000       0.00000000       0.00000000       0.00000000       3.35515690
Np       0.00000000       0.00000000       3.06060606       0.00000000       0.00000000      -3.35515690
2
Properties=species:S:1:pos:R:3:forces:R:3 energy=-158.52610586528144 pbc="F F F"
Np       0.00000000       0.00000000       0.00000000       0.00000000       0.00000000       2.50659728
Np       0.00000000       0.00000000       3.11939394       0.00000000       0.00000000      -2.50659728
2
Properties=species:S:1:pos:R:3:forces:R:3 energy=-158.40474675024805 pbc="F F F"
Np       0.00000000       0.00000000       0.00000000       0.00000000       0.00000000       1.64650869
Np       0.00000000       0.00000000       3.17818182       0.00000000       0.00000000      -1.64650869
2
Properties=species:S:1:pos:R:3:forces:R:3 energy=-158.32757492788494 pbc="F F F"
Np       0.00000000       0.00000000       0.00000000       0.00000000       0.00000000       1.03170502
Np       0.00000000       0.00000000       3.23696970       0.00000000       0.00000000      -1.03170502
2
Properties=species:S:1:pos:R:3:forces:R:3 energy=-158.27721039669547 pbc="F F F"
Np       0.00000000       0.00000000       0.00000000       0.00000000       0.00000000       0.72977555
Np       0.00000000       0.00000000       3.29575758       0.00000000       0.00000000      -0.72977555
2
Properties=species:S:1:pos:R:3:forces:R:3 energy=-158.23720397932965 pbc="F F F"
Np       0.00000000       0.00000000       0.00000000       0.00000000       0.00000000       0.65932763
Np       0.00000000       0.00000000       3.35454545       0.00000000       0.00000000      -0.65932763
2
Properties=species:S:1:pos:R:3:forces:R:3 energy=-158.19768306503377 pbc="F F F"
Np       0.00000000       0.00000000       0.00000000       0.00000000       0.00000000       0.69294780
Np       0.00000000       0.00000000       3.41333333       0.00000000       0.00000000      -0.69294780
2
Properties=species:S:1:pos:R:3:forces:R:3 energy=-158.15574823362806 pbc="F F F"
Np       0.00000000       0.00000000       0.00000000       0.00000000       0.00000000       0.72774798
Np       0.00000000       0.00000000       3.47212121       0.00000000       0.00000000      -0.72774798
2
Properties=species:S:1:pos:R:3:forces:R:3 energy=-158.1131998099778 pbc="F F F"
Np       0.00000000       0.00000000       0.00000000       0.00000000       0.00000000       0.70832390
Np       0.00000000       0.00000000       3.53090909       0.00000000       0.00000000      -0.70832390
2
Properties=species:S:1:pos:R:3:forces:R:3 energy=-158.07374537571422 pbc="F F F"
Np       0.00000000       0.00000000       0.00000000       0.00000000       0.00000000       0.62458014
Np       0.00000000       0.00000000       3.58969697       0.00000000       0.00000000      -0.62458014
2
Properties=species:S:1:pos:R:3:forces:R:3 energy=-158.04068058218473 pbc="F F F"
Np       0.00000000       0.00000000       0.00000000       0.00000000       0.00000000       0.49461755
Np       0.00000000       0.00000000       3.64848485       0.00000000       0.00000000      -0.49461755
2
Properties=species:S:1:pos:R:3:forces:R:3 energy=-158.01597354708133 pbc="F F F"
Np       0.00000000       0.00000000       0.00000000       0.00000000       0.00000000       0.34509104
Np       0.00000000       0.00000000       3.70727273       0.00000000       0.00000000      -0.34509104
2
Properties=species:S:1:pos:R:3:forces:R:3 energy=-157.99991391496349 pbc="F F F"
Np       0.00000000       0.00000000       0.00000000       0.00000000       0.00000000       0.20545320
Np       0.00000000       0.00000000       3.76606061       0.00000000       0.00000000      -0.20545320
2
Properties=species:S:1:pos:R:3:forces:R:3 energy=-157.99094498840373 pbc="F F F"
Np       0.00000000       0.00000000       0.00000000       0.00000000       0.00000000       0.11003800
Np       0.00000000       0.00000000       3.82484848       0.00000000       0.00000000      -0.11003800
2
Properties=species:S:1:pos:R:3:forces:R:3 energy=-157.98546538907235 pbc="F F F"
Np       0.00000000       0.00000000       0.00000000       0.00000000       0.00000000       0.09108590
Np       0.00000000       0.00000000       3.88363636       0.00000000       0.00000000      -0.09108590
2
Properties=species:S:1:pos:R:3:forces:R:3 energy=-157.97840888221842 pbc="F F F"
Np       0.00000000       0.00000000       0.00000000       0.00000000       0.00000000       0.16440839
Np       0.00000000       0.00000000       3.94242424       0.00000000       0.00000000      -0.16440839
2
Properties=species:S:1:pos:R:3:forces:R:3 energy=-157.9644650639556 pbc="F F F"
Np       0.00000000       0.00000000       0.00000000       0.00000000       0.00000000       0.32199344
Np       0.00000000       0.00000000       4.00121212       0.00000000       0.00000000      -0.32199344
2
Properties=species:S:1:pos:R:3:forces:R:3 energy=-157.9394221695456 pbc="F F F"
Np       0.00000000       0.00000000       0.00000000       0.00000000       0.00000000       0.53709036
Np       0.00000000       0.00000000       4.06000000       0.00000000       0.00000000      -0.53709036
2
Properties=species:S:1:pos:R:3:forces:R:3 energy=-157.90086894601706 pbc="F F F"
Np       0.00000000       0.00000000       0.00000000       0.00000000       0.00000000       0.77543831
Np       0.00000000       0.00000000       4.11878788       0.00000000       0.00000000      -0.77543831
2
Properties=species:S:1:pos:R:3:forces:R:3 energy=-157.84842355617602 pbc="F F F"
Np       0.00000000       0.00000000       0.00000000       0.00000000       0.00000000       1.00496936
Np       0.00000000       0.00000000       4.17757576       0.00000000       0.00000000      -1.00496936
2
Properties=species:S:1:pos:R:3:forces:R:3 energy=-157.78336734866159 pbc="F F F"
Np       0.00000000       0.00000000       0.00000000       0.00000000       0.00000000       1.20118487
Np       0.00000000       0.00000000       4.23636364       0.00000000       0.00000000      -1.20118487
2
Properties=species:S:1:pos:R:3:forces:R:3 energy=-157.70814134008168 pbc="F F F"
Np       0.00000000       0.00000000       0.00000000       0.00000000       0.00000000       1.34919310
Np       0.00000000       0.00000000       4.29515152       0.00000000       0.00000000      -1.34919310
2
Properties=species:S:1:pos:R:3:forces:R:3 energy=-157.62579688593536 pbc="F F F"
Np       0.00000000       0.00000000       0.00000000       0.00000000       0.00000000       1.44352090
Np       0.00000000       0.00000000       4.35393939       0.00000000       0.00000000      -1.44352090
2
Properties=species:S:1:pos:R:3:forces:R:3 energy=-157.5394311212567 pbc="F F F"
Np       0.00000000       0.00000000       0.00000000       0.00000000       0.00000000       1.48630714
Np       0.00000000       0.00000000       4.41272727       0.00000000       0.00000000      -1.48630714
2
Properties=species:S:1:pos:R:3:forces:R:3 energy=-157.45191228340482 pbc="F F F"
Np       0.00000000       0.00000000       0.00000000       0.00000000       0.00000000       1.48452449
Np       0.00000000       0.00000000       4.47151515       0.00000000       0.00000000      -1.48452449
2
Properties=species:S:1:pos:R:3:forces:R:3 energy=-157.3655898109106 pbc="F F F"
Np       0.00000000       0.00000000       0.00000000       0.00000000       0.00000000       1.44711161
Np       0.00000000       0.00000000       4.53030303       0.00000000       0.00000000      -1.44711161
2
Properties=species:S:1:pos:R:3:forces:R:3 energy=-157.28229434347682 pbc="F F F"
Np       0.00000000       0.00000000       0.00000000       0.00000000       0.00000000       1.38268006
Np       0.00000000       0.00000000       4.58909091       0.00000000       0.00000000      -1.38268006
2
Properties=species:S:1:pos:R:3:forces:R:3 energy=-157.2034140159235 pbc="F F F"
Np       0.00000000       0.00000000       0.00000000       0.00000000       0.00000000       1.29832125
Np       0.00000000       0.00000000       4.64787879       0.00000000       0.00000000      -1.29832125
2
Properties=species:S:1:pos:R:3:forces:R:3 energy=-157.12992498526938 pbc="F F F"
Np       0.00000000       0.00000000       0.00000000       0.00000000       0.00000000       1.19956326
Np       0.00000000       0.00000000       4.70666667       0.00000000       0.00000000      -1.19956326
2
Properties=species:S:1:pos:R:3:forces:R:3 energy=-157.0625592615726 pbc="F F F"
Np       0.00000000       0.00000000       0.00000000       0.00000000       0.00000000       1.09131241
Np       0.00000000       0.00000000       4.76545455       0.00000000       0.00000000      -1.09131241
2
Properties=species:S:1:pos:R:3:forces:R:3 energy=-157.00169792174978 pbc="F F F"
Np       0.00000000       0.00000000       0.00000000       0.00000000       0.00000000       0.97884935
Np       0.00000000       0.00000000       4.82424242       0.00000000       0.00000000      -0.97884935
2
Properties=species:S:1:pos:R:3:forces:R:3 energy=-156.9474321383966 pbc="F F F"
Np       0.00000000       0.00000000       0.00000000       0.00000000       0.00000000       0.86833078
Np       0.00000000       0.00000000       4.88303030       0.00000000       0.00000000      -0.86833078
2
Properties=species:S:1:pos:R:3:forces:R:3 energy=-156.89944111581107 pbc="F F F"
Np       0.00000000       0.00000000       0.00000000       0.00000000       0.00000000       0.76613021
Np       0.00000000       0.00000000       4.94181818       0.00000000       0.00000000      -0.76613021
2
Properties=species:S:1:pos:R:3:forces:R:3 energy=-156.8570836363921 pbc="F F F"
Np       0.00000000       0.00000000       0.00000000       0.00000000       0.00000000       0.67766619
Np       0.00000000       0.00000000       5.00060606       0.00000000       0.00000000      -0.67766619
2
Properties=species:S:1:pos:R:3:forces:R:3 energy=-156.81942859722466 pbc="F F F"
Np       0.00000000       0.00000000       0.00000000       0.00000000       0.00000000       0.60587066
Np       0.00000000       0.00000000       5.05939394       0.00000000       0.00000000      -0.60587066
2
Properties=species:S:1:pos:R:3:forces:R:3 energy=-156.78551440949383 pbc="F F F"
Np       0.00000000       0.00000000       0.00000000       0.00000000       0.00000000       0.55047143
Np       0.00000000       0.00000000       5.11818182       0.00000000       0.00000000      -0.55047143
2
Properties=species:S:1:pos:R:3:forces:R:3 energy=-156.75445579733693 pbc="F F F"
Np       0.00000000       0.00000000       0.00000000       0.00000000       0.00000000       0.50804478
Np       0.00000000       0.00000000       5.17696970       0.00000000       0.00000000      -0.50804478
2
Properties=species:S:1:pos:R:3:forces:R:3 energy=-156.72564219694738 pbc="F F F"
Np       0.00000000       0.00000000       0.00000000       0.00000000       0.00000000       0.47263288
Np       0.00000000       0.00000000       5.23575758       0.00000000       0.00000000      -0.47263288
2
Properties=species:S:1:pos:R:3:forces:R:3 energy=-156.6989055810796 pbc="F F F"
Np       0.00000000       0.00000000       0.00000000       0.00000000       0.00000000       0.43672529
Np       0.00000000       0.00000000       5.29454545       0.00000000       0.00000000      -0.43672529
2
Properties=species:S:1:pos:R:3:forces:R:3 energy=-156.67441367286824 pbc="F F F"
Np       0.00000000       0.00000000       0.00000000       0.00000000       0.00000000       0.39573336
Np       0.00000000       0.00000000       5.35333333       0.00000000       0.00000000      -0.39573336
2
Properties=species:S:1:pos:R:3:forces:R:3 energy=-156.65231898100836 pbc="F F F"
Np       0.00000000       0.00000000       0.00000000       0.00000000       0.00000000       0.35819644
Np       0.00000000       0.00000000       5.41212121       0.00000000       0.00000000      -0.35819644
2
Properties=species:S:1:pos:R:3:forces:R:3 energy=-156.6318280294618 pbc="F F F"
Np       0.00000000       0.00000000       0.00000000       0.00000000       0.00000000       0.34317601
Np       0.00000000       0.00000000       5.47090909       0.00000000       0.00000000      -0.34317601
2
Properties=species:S:1:pos:R:3:forces:R:3 energy=-156.61167436091108 pbc="F F F"
Np       0.00000000       0.00000000       0.00000000       0.00000000       0.00000000       0.34154364
Np       0.00000000       0.00000000       5.52969697       0.00000000       0.00000000      -0.34154364
2
Properties=species:S:1:pos:R:3:forces:R:3 energy=-156.59211749197974 pbc="F F F"
Np       0.00000000       0.00000000       0.00000000       0.00000000       0.00000000       0.31915441
Np       0.00000000       0.00000000       5.58848485       0.00000000       0.00000000      -0.31915441
2
Properties=species:S:1:pos:R:3:forces:R:3 energy=-156.57451561962102 pbc="F F F"
Np       0.00000000       0.00000000       0.00000000       0.00000000       0.00000000       0.27987942
Np       0.00000000       0.00000000       5.64727273       0.00000000       0.00000000      -0.27987942
2
Properties=species:S:1:pos:R:3:forces:R:3 energy=-156.5587469016057 pbc="F F F"
Np       0.00000000       0.00000000       0.00000000       0.00000000       0.00000000       0.26332653
Np       0.00000000       0.00000000       5.70606061       0.00000000       0.00000000      -0.26332653
2
Properties=species:S:1:pos:R:3:forces:R:3 energy=-156.54281275018096 pbc="F F F"
Np       0.00000000       0.00000000       0.00000000       0.00000000       0.00000000       0.27927607
Np       0.00000000       0.00000000       5.76484848       0.00000000       0.00000000      -0.27927607
2
Properties=species:S:1:pos:R:3:forces:R:3 energy=-156.52665251508088 pbc="F F F"
Np       0.00000000       0.00000000       0.00000000       0.00000000       0.00000000       0.25754964
Np       0.00000000       0.00000000       5.82363636       0.00000000       0.00000000      -0.25754964
2
Properties=species:S:1:pos:R:3:forces:R:3 energy=-156.51417288821673 pbc="F F F"
Np       0.00000000       0.00000000       0.00000000       0.00000000       0.00000000       0.15974912
Np       0.00000000       0.00000000       5.88242424       0.00000000       0.00000000      -0.15974912
2
Properties=species:S:1:pos:R:3:forces:R:3 energy=-156.50809047098744 pbc="F F F"
Np       0.00000000       0.00000000       0.00000000       0.00000000       0.00000000       0.05165670
Np       0.00000000       0.00000000       5.94121212       0.00000000       0.00000000      -0.05165670
2
Properties=species:S:1:pos:R:3:forces:R:3 energy=-156.50677316059435 pbc="F F F"
Np       0.00000000       0.00000000       0.00000000       0.00000000       0.00000000       0.00770207
Np       0.00000000       0.00000000       6.00000000       0.00000000       0.00000000      -0.00770207
