2
Properties=species:S:1:pos:R:3:forces:R:3 energy=-818.433730718223 pbc="F F F"
O        0.00000000       0.00000000       0.00000000       0.00000000       0.00000000   -7446.65283203
O        0.00000000       0.00000000       0.18000000       0.00000000       0.00000000    7446.65283203
2
Properties=species:S:1:pos:R:3:forces:R:3 energy=-1195.4948879447854 pbc="F F F"
O        0.00000000       0.00000000       0.00000000       0.00000000       0.00000000   -6227.90820312
O        0.00000000       0.00000000       0.23878788       0.00000000       0.00000000    6227.90820312
2
Properties=species:S:1:pos:R:3:forces:R:3 energy=-1625.8631740774001 pbc="F F F"
O        0.00000000       0.00000000       0.00000000       0.00000000       0.00000000   -7977.21679688
O        0.00000000       0.00000000       0.29757576       0.00000000       0.00000000    7977.21679688
2
Properties=species:S:1:pos:R:3:forces:R:3 energy=-2231.0984035693896 pbc="F F F"
O        0.00000000       0.00000000       0.00000000       0.00000000       0.00000000   -1430.07373047
O        0.00000000       0.00000000       0.35636364       0.00000000       0.00000000    1430.07373047
2
Properties=species:S:1:pos:R:3:forces:R:3 energy=-1540.5428615764101 pbc="F F F"
O        0.00000000       0.00000000       0.00000000       0.00000000       0.00000000   17407.60742188
O        0.00000000       0.00000000       0.41515152       0.00000000       0.00000000  -17407.60742188
2
Properties=species:S:1:pos:R:3:forces:R:3 energy=-528.5000759304929 pbc="F F F"
O        0.00000000       0.00000000       0.00000000       0.00000000       0.00000000   13391.19726562
O        0.00000000       0.00000000       0.47393939       0.00000000       0.00000000  -13391.19726562
2
Properties=species:S:1:pos:R:3:forces:R:3 energy=-26.03227578694424 pbc="F F F"
O        0.00000000       0.00000000       0.00000000       0.00000000       0.00000000    4543.23193359
O        0.00000000       0.00000000       0.53272727       0.00000000       0.00000000   -4543.23193359
2
Properties=species:S:1:pos:R:3:forces:R:3 energy=78.61718024197741 pbc="F F F"
O        0.00000000       0.00000000       0.00000000       0.00000000       0.00000000    -148.65194702
O        0.00000000       0.00000000       0.59151515       0.00000000       0.00000000     148.65194702
2
Properties=species:S:1:pos:R:3:forces:R:3 energy=38.22246208012693 pbc="F F F"
O        0.00000000       0.00000000       0.00000000       0.00000000       0.00000000    -597.36914062
O        0.00000000       0.00000000       0.65030303       0.00000000       0.00000000     597.36914062
2
Properties=species:S:1:pos:R:3:forces:R:3 energy=19.83157769338416 pbc="F F F"
O        0.00000000       0.00000000       0.00000000       0.00000000       0.00000000    -260.30105591
O        0.00000000       0.00000000       0.70909091       0.00000000       0.00000000     260.30105591
2
Properties=species:S:1:pos:R:3:forces:R:3 energy=7.949742729159373 pbc="F F F"
O        0.00000000       0.00000000       0.00000000       0.00000000       0.00000000    -158.13311768
O        0.00000000       0.00000000       0.76787879       0.00000000       0.00000000     158.13311768
2
Properties=species:S:1:pos:R:3:forces:R:3 energy=1.668110334268894 pbc="F F F"
O        0.00000000       0.00000000       0.00000000       0.00000000       0.00000000     -63.12728119
O        0.00000000       0.00000000       0.82666667       0.00000000       0.00000000      63.12728119
2
Properties=species:S:1:pos:R:3:forces:R:3 energy=-2.4707586719123236 pbc="F F F"
O        0.00000000       0.00000000       0.00000000       0.00000000       0.00000000     -69.59065247
O        0.00000000       0.00000000       0.88545455       0.00000000       0.00000000      69.59065247
2
Properties=species:S:1:pos:R:3:forces:R:3 energy=-5.9210528720917965 pbc="F F F"
O        0.00000000       0.00000000       0.00000000       0.00000000       0.00000000     -51.18068314
O        0.00000000       0.00000000       0.94424242       0.00000000       0.00000000      51.18068314
2
Properties=species:S:1:pos:R:3:forces:R:3 energy=-8.558207851073876 pbc="F F F"
O        0.00000000       0.00000000       0.00000000       0.00000000       0.00000000     -37.87820816
O        0.00000000       0.00000000       1.00303030       0.00000000       0.00000000      37.87820816
2
Properties=species:S:1:pos:R:3:forces:R:3 energy=-10.32963300065774 pbc="F F F"
O        0.00000000       0.00000000       0.00000000       0.00000000       0.00000000     -22.61003113
O        0.00000000       0.00000000       1.06181818       0.00000000       0.00000000      22.61003113
2
Properties=species:S:1:pos:R:3:forces:R:3 energy=-11.29527200198597 pbc="F F F"
O        0.00000000       0.00000000       0.00000000       0.00000000       0.00000000     -11.04490280
O        0.00000000       0.00000000       1.12060606       0.00000000       0.00000000      11.04490280
2
Properties=species:S:1:pos:R:3:forces:R:3 energy=-11.708388356287752 pbc="F F F"
O        0.00000000       0.00000000       0.00000000       0.00000000       0.00000000      -3.54198551
O        0.00000000       0.00000000       1.17939394       0.00000000       0.00000000       3.54198551
2
Properties=species:S:1:pos:R:3:forces:R:3 energy=-11.761366862409286 pbc="F F F"
O        0.00000000       0.00000000       0.00000000       0.00000000       0.00000000       1.39506364
O        0.00000000       0.00000000       1.23818182       0.00000000       0.00000000      -1.39506364
2
Properties=species:S:1:pos:R:3:forces:R:3 energy=-11.577389998659307 pbc="F F F"
O        0.00000000       0.00000000       0.00000000       0.00000000       0.00000000       4.64282846
O        0.00000000       0.00000000       1.29696970       0.00000000       0.00000000      -4.64282846
2
Properties=species:S:1:pos:R:3:forces:R:3 energy=-11.236093753612316 pbc="F F F"
O        0.00000000       0.00000000       0.00000000       0.00000000       0.00000000       6.82213736
O        0.00000000       0.00000000       1.35575758       0.00000000       0.00000000      -6.82213736
2
Properties=species:S:1:pos:R:3:forces:R:3 energy=-10.794766030278275 pbc="F F F"
O        0.00000000       0.00000000       0.00000000       0.00000000       0.00000000       8.03373909
O        0.00000000       0.00000000       1.41454545       0.00000000       0.00000000      -8.03373909
2
Properties=species:S:1:pos:R:3:forces:R:3 energy=-10.299336218557041 pbc="F F F"
O        0.00000000       0.00000000       0.00000000       0.00000000       0.00000000       8.79212952
O        0.00000000       0.00000000       1.47333333       0.00000000       0.00000000      -8.79212952
2
Properties=species:S:1:pos:R:3:forces:R:3 energy=-9.773753940125166 pbc="F F F"
O        0.00000000       0.00000000       0.00000000       0.00000000       0.00000000       8.98131752
O        0.00000000       0.00000000       1.53212121       0.00000000       0.00000000      -8.98131752
2
Properties=species:S:1:pos:R:3:forces:R:3 energy=-9.241259472154308 pbc="F F F"
O        0.00000000       0.00000000       0.00000000       0.00000000       0.00000000       9.21044159
O        0.00000000       0.00000000       1.59090909       0.00000000       0.00000000      -9.21044159
2
Properties=species:S:1:pos:R:3:forces:R:3 energy=-8.680819269069746 pbc="F F F"
O        0.00000000       0.00000000       0.00000000       0.00000000       0.00000000       9.96832657
O        0.00000000       0.00000000       1.64969697       0.00000000       0.00000000      -9.96832657
2
Properties=species:S:1:pos:R:3:forces:R:3 energy=-8.078091855270477 pbc="F F F"
O        0.00000000       0.00000000       0.00000000       0.00000000       0.00000000      10.00485992
O        0.00000000       0.00000000       1.70848485       0.00000000       0.00000000     -10.00485992
2
Properties=species:S:1:pos:R:3:forces:R:3 energy=-7.6162637442063374 pbc="F F F"
O        0.00000000       0.00000000       0.00000000       0.00000000       0.00000000       4.82220888
O        0.00000000       0.00000000       1.76727273       0.00000000       0.00000000      -4.82220888
2
Properties=species:S:1:pos:R:3:forces:R:3 energy=-7.518847559175452 pbc="F F F"
O        0.00000000       0.00000000       0.00000000       0.00000000       0.00000000      -0.82582295
O        0.00000000       0.00000000       1.82606061       0.00000000       0.00000000       0.82582295
2
Properties=species:S:1:pos:R:3:forces:R:3 energy=-7.636610946899783 pbc="F F F"
O        0.00000000       0.00000000       0.00000000       0.00000000       0.00000000      -2.88502288
O        0.00000000       0.00000000       1.88484848       0.00000000       0.00000000       2.88502288
2
Properties=species:S:1:pos:R:3:forces:R:3 energy=-7.847248649924336 pbc="F F F"
O        0.00000000       0.00000000       0.00000000       0.00000000       0.00000000      -4.15461969
O        0.00000000       0.00000000       1.94363636       0.00000000       0.00000000       4.15461969
2
Properties=species:S:1:pos:R:3:forces:R:3 energy=-8.092977275115716 pbc="F F F"
O        0.00000000       0.00000000       0.00000000       0.00000000       0.00000000      -3.85781097
O        0.00000000       0.00000000       2.00242424       0.00000000       0.00000000       3.85781097
2
Properties=species:S:1:pos:R:3:forces:R:3 energy=-8.267776206637441 pbc="F F F"
O        0.00000000       0.00000000       0.00000000       0.00000000       0.00000000      -1.93147957
O        0.00000000       0.00000000       2.06121212       0.00000000       0.00000000       1.93147957
2
Properties=species:S:1:pos:R:3:forces:R:3 energy=-8.317545159430505 pbc="F F F"
O        0.00000000       0.00000000       0.00000000       0.00000000       0.00000000       0.14931244
O        0.00000000       0.00000000       2.12000000       0.00000000       0.00000000      -0.14931244
2
Properties=species:S:1:pos:R:3:forces:R:3 energy=-8.267239216020215 pbc="F F F"
O        0.00000000       0.00000000       0.00000000       0.00000000       0.00000000       1.39912593
O        0.00000000       0.00000000       2.17878788       0.00000000       0.00000000      -1.39912593
2
Properties=species:S:1:pos:R:3:forces:R:3 energy=-8.168764117121514 pbc="F F F"
O        0.00000000       0.00000000       0.00000000       0.00000000       0.00000000       1.86796343
O        0.00000000       0.00000000       2.23757576       0.00000000       0.00000000      -1.86796343
2
Properties=species:S:1:pos:R:3:forces:R:3 energy=-8.050749183729902 pbc="F F F"
O        0.00000000       0.00000000       0.00000000       0.00000000       0.00000000       2.16194129
O        0.00000000       0.00000000       2.29636364       0.00000000       0.00000000      -2.16194129
2
Properties=species:S:1:pos:R:3:forces:R:3 energy=-7.912157270673658 pbc="F F F"
O        0.00000000       0.00000000       0.00000000       0.00000000       0.00000000       2.55782151
O        0.00000000       0.00000000       2.35515152       0.00000000       0.00000000      -2.55782151
2
Properties=species:S:1:pos:R:3:forces:R:3 energy=-7.752802838999007 pbc="F F F"
O        0.00000000       0.00000000       0.00000000       0.00000000       0.00000000       2.81569576
O        0.00000000       0.00000000       2.41393939       0.00000000       0.00000000      -2.81569576
2
Properties=species:S:1:pos:R:3:forces:R:3 energy=-7.5876766271773635 pbc="F F F"
O        0.00000000       0.00000000       0.00000000       0.00000000       0.00000000       2.74851847
O        0.00000000       0.00000000       2.47272727       0.00000000       0.00000000      -2.74851847
2
Properties=species:S:1:pos:R:3:forces:R:3 energy=-7.434482092551591 pbc="F F F"
O        0.00000000       0.00000000       0.00000000       0.00000000       0.00000000       2.43657684
O        0.00000000       0.00000000       2.53151515       0.00000000       0.00000000      -2.43657684
2
Properties=species:S:1:pos:R:3:forces:R:3 energy=-7.302768769931682 pbc="F F F"
O        0.00000000       0.00000000       0.00000000       0.00000000       0.00000000       2.04180622
O        0.00000000       0.00000000       2.59030303       0.00000000       0.00000000      -2.04180622
2
Properties=species:S:1:pos:R:3:forces:R:3 energy=-7.193937998986354 pbc="F F F"
O        0.00000000       0.00000000       0.00000000       0.00000000       0.00000000       1.66905069
O        0.00000000       0.00000000       2.64909091       0.00000000       0.00000000      -1.66905069
2
Properties=species:S:1:pos:R:3:forces:R:3 energy=-7.1053599344850715 pbc="F F F"
O        0.00000000       0.00000000       0.00000000       0.00000000       0.00000000       1.35475707
O        0.00000000       0.00000000       2.70787879       0.00000000       0.00000000      -1.35475707
2
Properties=species:S:1:pos:R:3:forces:R:3 energy=-7.033495882543603 pbc="F F F"
O        0.00000000       0.00000000       0.00000000       0.00000000       0.00000000       1.09912527
O        0.00000000       0.00000000       2.76666667       0.00000000       0.00000000      -1.09912527
2
Properties=species:S:1:pos:R:3:forces:R:3 energy=-6.975175745390947 pbc="F F F"
O        0.00000000       0.00000000       0.00000000       0.00000000       0.00000000       0.89226180
O        0.00000000       0.00000000       2.82545455       0.00000000       0.00000000      -0.89226180
2
Properties=species:S:1:pos:R:3:forces:R:3 energy=-6.927799725467151 pbc="F F F"
O        0.00000000       0.00000000       0.00000000       0.00000000       0.00000000       0.72572321
O        0.00000000       0.00000000       2.88424242       0.00000000       0.00000000      -0.72572321
2
Properties=species:S:1:pos:R:3:forces:R:3 energy=-6.889162380233492 pbc="F F F"
O        0.00000000       0.00000000       0.00000000       0.00000000       0.00000000       0.59426022
O        0.00000000       0.00000000       2.94303030       0.00000000       0.00000000      -0.59426022
2
Properties=species:S:1:pos:R:3:forces:R:3 energy=-6.857318148946159 pbc="F F F"
O        0.00000000       0.00000000       0.00000000       0.00000000       0.00000000       0.49393025
O        0.00000000       0.00000000       3.00181818       0.00000000       0.00000000      -0.49393025
2
Properties=species:S:1:pos:R:3:forces:R:3 energy=-6.830563238783904 pbc="F F F"
O        0.00000000       0.00000000       0.00000000       0.00000000       0.00000000       0.42035013
O        0.00000000       0.00000000       3.06060606       0.00000000       0.00000000      -0.42035013
2
Properties=species:S:1:pos:R:3:forces:R:3 energy=-6.807475680555257 pbc="F F F"
O        0.00000000       0.00000000       0.00000000       0.00000000       0.00000000       0.36819032
O        0.00000000       0.00000000       3.11939394       0.00000000       0.00000000      -0.36819032
2
Properties=species:S:1:pos:R:3:forces:R:3 energy=-6.786965872843322 pbc="F F F"
O        0.00000000       0.00000000       0.00000000       0.00000000       0.00000000       0.33166954
O        0.00000000       0.00000000       3.17818182       0.00000000       0.00000000      -0.33166954
2
Properties=species:S:1:pos:R:3:forces:R:3 energy=-6.768279452730191 pbc="F F F"
O        0.00000000       0.00000000       0.00000000       0.00000000       0.00000000       0.30537072
O        0.00000000       0.00000000       3.23696970       0.00000000       0.00000000      -0.30537072
2
Properties=species:S:1:pos:R:3:forces:R:3 energy=-6.750948174442039 pbc="F F F"
O        0.00000000       0.00000000       0.00000000       0.00000000       0.00000000       0.28495479
O        0.00000000       0.00000000       3.29575758       0.00000000       0.00000000      -0.28495479
2
Properties=species:S:1:pos:R:3:forces:R:3 energy=-6.734717912481934 pbc="F F F"
O        0.00000000       0.00000000       0.00000000       0.00000000       0.00000000       0.26751363
O        0.00000000       0.00000000       3.35454545       0.00000000       0.00000000      -0.26751363
2
Properties=species:S:1:pos:R:3:forces:R:3 energy=-6.719465218492955 pbc="F F F"
O        0.00000000       0.00000000       0.00000000       0.00000000       0.00000000       0.25162402
O        0.00000000       0.00000000       3.41333333       0.00000000       0.00000000      -0.25162402
2
Properties=species:S:1:pos:R:3:forces:R:3 energy=-6.705106718238359 pbc="F F F"
O        0.00000000       0.00000000       0.00000000       0.00000000       0.00000000       0.23711029
O        0.00000000       0.00000000       3.47212121       0.00000000       0.00000000      -0.23711029
2
Properties=species:S:1:pos:R:3:forces:R:3 energy=-6.691547141796032 pbc="F F F"
O        0.00000000       0.00000000       0.00000000       0.00000000       0.00000000       0.22466230
O        0.00000000       0.00000000       3.53090909       0.00000000       0.00000000      -0.22466230
2
Properties=species:S:1:pos:R:3:forces:R:3 energy=-6.678630202698562 pbc="F F F"
O        0.00000000       0.00000000       0.00000000       0.00000000       0.00000000       0.21534543
O        0.00000000       0.00000000       3.58969697       0.00000000       0.00000000      -0.21534543
2
Properties=species:S:1:pos:R:3:forces:R:3 energy=-6.666146711094546 pbc="F F F"
O        0.00000000       0.00000000       0.00000000       0.00000000       0.00000000       0.21012703
O        0.00000000       0.00000000       3.64848485       0.00000000       0.00000000      -0.21012703
2
Properties=species:S:1:pos:R:3:forces:R:3 energy=-6.653834566324002 pbc="F F F"
O        0.00000000       0.00000000       0.00000000       0.00000000       0.00000000       0.20950270
O        0.00000000       0.00000000       3.70727273       0.00000000       0.00000000      -0.20950270
2
Properties=species:S:1:pos:R:3:forces:R:3 energy=-6.641427392031634 pbc="F F F"
O        0.00000000       0.00000000       0.00000000       0.00000000       0.00000000       0.21326141
O        0.00000000       0.00000000       3.76606061       0.00000000       0.00000000      -0.21326141
2
Properties=species:S:1:pos:R:3:forces:R:3 energy=-6.628692208975182 pbc="F F F"
O        0.00000000       0.00000000       0.00000000       0.00000000       0.00000000       0.22047000
O        0.00000000       0.00000000       3.82484848       0.00000000       0.00000000      -0.22047000
2
Properties=species:S:1:pos:R:3:forces:R:3 energy=-6.615467571702655 pbc="F F F"
O        0.00000000       0.00000000       0.00000000       0.00000000       0.00000000       0.22962126
O        0.00000000       0.00000000       3.88363636       0.00000000       0.00000000      -0.22962126
2
Properties=species:S:1:pos:R:3:forces:R:3 energy=-6.601691227087395 pbc="F F F"
O        0.00000000       0.00000000       0.00000000       0.00000000       0.00000000       0.23893647
O        0.00000000       0.00000000       3.94242424       0.00000000       0.00000000      -0.23893647
2
Properties=species:S:1:pos:R:3:forces:R:3 energy=-6.587404875077088 pbc="F F F"
O        0.00000000       0.00000000       0.00000000       0.00000000       0.00000000       0.24671786
O        0.00000000       0.00000000       4.00121212       0.00000000       0.00000000      -0.24671786
2
Properties=species:S:1:pos:R:3:forces:R:3 energy=-6.5727393840690125 pbc="F F F"
O        0.00000000       0.00000000       0.00000000       0.00000000       0.00000000       0.25164506
O        0.00000000       0.00000000       4.06000000       0.00000000       0.00000000      -0.25164506
2
Properties=species:S:1:pos:R:3:forces:R:3 energy=-6.557888560510574 pbc="F F F"
O        0.00000000       0.00000000       0.00000000       0.00000000       0.00000000       0.25295502
O        0.00000000       0.00000000       4.11878788       0.00000000       0.00000000      -0.25295502
2
Properties=species:S:1:pos:R:3:forces:R:3 energy=-6.54307338383558 pbc="F F F"
O        0.00000000       0.00000000       0.00000000       0.00000000       0.00000000       0.25042644
O        0.00000000       0.00000000       4.17757576       0.00000000       0.00000000      -0.25042644
2
Properties=species:S:1:pos:R:3:forces:R:3 energy=-6.528516727462216 pbc="F F F"
O        0.00000000       0.00000000       0.00000000       0.00000000       0.00000000       0.24422354
O        0.00000000       0.00000000       4.23636364       0.00000000       0.00000000      -0.24422354
2
Properties=species:S:1:pos:R:3:forces:R:3 energy=-6.514423331434419 pbc="F F F"
O        0.00000000       0.00000000       0.00000000       0.00000000       0.00000000       0.23469943
O        0.00000000       0.00000000       4.29515152       0.00000000       0.00000000      -0.23469943
2
Properties=species:S:1:pos:R:3:forces:R:3 energy=-6.500979324792763 pbc="F F F"
O        0.00000000       0.00000000       0.00000000       0.00000000       0.00000000       0.22223496
O        0.00000000       0.00000000       4.35393939       0.00000000       0.00000000      -0.22223496
2
Properties=species:S:1:pos:R:3:forces:R:3 energy=-6.488345066384458 pbc="F F F"
O        0.00000000       0.00000000       0.00000000       0.00000000       0.00000000       0.20718257
O        0.00000000       0.00000000       4.41272727       0.00000000       0.00000000      -0.20718257
2
Properties=species:S:1:pos:R:3:forces:R:3 energy=-6.4766627768317315 pbc="F F F"
O        0.00000000       0.00000000       0.00000000       0.00000000       0.00000000       0.18991286
O        0.00000000       0.00000000       4.47151515       0.00000000       0.00000000      -0.18991286
2
Properties=species:S:1:pos:R:3:forces:R:3 energy=-6.466049863059109 pbc="F F F"
O        0.00000000       0.00000000       0.00000000       0.00000000       0.00000000       0.17087962
O        0.00000000       0.00000000       4.53030303       0.00000000       0.00000000      -0.17087962
2
Properties=species:S:1:pos:R:3:forces:R:3 energy=-6.456595101269772 pbc="F F F"
O        0.00000000       0.00000000       0.00000000       0.00000000       0.00000000       0.15065302
O        0.00000000       0.00000000       4.58909091       0.00000000       0.00000000      -0.15065302
2
Properties=species:S:1:pos:R:3:forces:R:3 energy=-6.4483476708788565 pbc="F F F"
O        0.00000000       0.00000000       0.00000000       0.00000000       0.00000000       0.12990141
O        0.00000000       0.00000000       4.64787879       0.00000000       0.00000000      -0.12990141
2
Properties=species:S:1:pos:R:3:forces:R:3 energy=-6.441318588390736 pbc="F F F"
O        0.00000000       0.00000000       0.00000000       0.00000000       0.00000000       0.10930862
O        0.00000000       0.00000000       4.70666667       0.00000000       0.00000000      -0.10930862
2
Properties=species:S:1:pos:R:3:forces:R:3 energy=-6.435480704924161 pbc="F F F"
O        0.00000000       0.00000000       0.00000000       0.00000000       0.00000000       0.08947884
O        0.00000000       0.00000000       4.76545455       0.00000000       0.00000000      -0.08947884
2
Properties=species:S:1:pos:R:3:forces:R:3 energy=-6.430773955974744 pbc="F F F"
O        0.00000000       0.00000000       0.00000000       0.00000000       0.00000000       0.07086221
O        0.00000000       0.00000000       4.82424242       0.00000000       0.00000000      -0.07086221
2
Properties=species:S:1:pos:R:3:forces:R:3 energy=-6.4271206206989975 pbc="F F F"
O        0.00000000       0.00000000       0.00000000       0.00000000       0.00000000       0.05370713
O        0.00000000       0.00000000       4.88303030       0.00000000       0.00000000      -0.05370713
2
Properties=species:S:1:pos:R:3:forces:R:3 energy=-6.4244296143397 pbc="F F F"
O        0.00000000       0.00000000       0.00000000       0.00000000       0.00000000       0.03808652
O        0.00000000       0.00000000       4.94181818       0.00000000       0.00000000      -0.03808652
2
Properties=species:S:1:pos:R:3:forces:R:3 energy=-6.422611749192844 pbc="F F F"
O        0.00000000       0.00000000       0.00000000       0.00000000       0.00000000       0.02399623
O        0.00000000       0.00000000       5.00060606       0.00000000       0.00000000      -0.02399623
2
Properties=species:S:1:pos:R:3:forces:R:3 energy=-6.42157687645552 pbc="F F F"
O        0.00000000       0.00000000       0.00000000       0.00000000       0.00000000       0.01148040
O        0.00000000       0.00000000       5.05939394       0.00000000       0.00000000      -0.01148040
2
Properties=species:S:1:pos:R:3:forces:R:3 energy=-6.421228163487062 pbc="F F F"
O        0.00000000       0.00000000       0.00000000       0.00000000       0.00000000       0.00070297
O        0.00000000       0.00000000       5.11818182       0.00000000       0.00000000      -0.00070297
2
Properties=species:S:1:pos:R:3:forces:R:3 energy=-6.421456851174159 pbc="F F F"
O        0.00000000       0.00000000       0.00000000       0.00000000       0.00000000      -0.00816096
O        0.00000000       0.00000000       5.17696970       0.00000000       0.00000000       0.00816096
2
Properties=species:S:1:pos:R:3:forces:R:3 energy=-6.422150361276233 pbc="F F F"
O        0.00000000       0.00000000       0.00000000       0.00000000       0.00000000      -0.01514498
O        0.00000000       0.00000000       5.23575758       0.00000000       0.00000000       0.01514498
2
Properties=species:S:1:pos:R:3:forces:R:3 energy=-6.423205649103299 pbc="F F F"
O        0.00000000       0.00000000       0.00000000       0.00000000       0.00000000      -0.02050619
O        0.00000000       0.00000000       5.29454545       0.00000000       0.00000000       0.02050619
2
Properties=species:S:1:pos:R:3:forces:R:3 energy=-6.4245301581059815 pbc="F F F"
O        0.00000000       0.00000000       0.00000000       0.00000000       0.00000000      -0.02423947
O        0.00000000       0.00000000       5.35333333       0.00000000       0.00000000       0.02423947
2
Properties=species:S:1:pos:R:3:forces:R:3 energy=-6.426014640528723 pbc="F F F"
O        0.00000000       0.00000000       0.00000000       0.00000000       0.00000000      -0.02590585
O        0.00000000       0.00000000       5.41212121       0.00000000       0.00000000       0.02590585
2
Properties=species:S:1:pos:R:3:forces:R:3 energy=-6.427546033374232 pbc="F F F"
O        0.00000000       0.00000000       0.00000000       0.00000000       0.00000000      -0.02612961
O        0.00000000       0.00000000       5.47090909       0.00000000       0.00000000       0.02612961
2
Properties=species:S:1:pos:R:3:forces:R:3 energy=-6.429099965307146 pbc="F F F"
O        0.00000000       0.00000000       0.00000000       0.00000000       0.00000000      -0.02691121
O        0.00000000       0.00000000       5.52969697       0.00000000       0.00000000       0.02691121
2
Properties=species:S:1:pos:R:3:forces:R:3 energy=-6.430712623063707 pbc="F F F"
O        0.00000000       0.00000000       0.00000000       0.00000000       0.00000000      -0.02780398
O        0.00000000       0.00000000       5.58848485       0.00000000       0.00000000       0.02780398
2
Properties=species:S:1:pos:R:3:forces:R:3 energy=-6.4323710809347645 pbc="F F F"
O        0.00000000       0.00000000       0.00000000       0.00000000       0.00000000      -0.02903324
O        0.00000000       0.00000000       5.64727273       0.00000000       0.00000000       0.02903324
2
Properties=species:S:1:pos:R:3:forces:R:3 energy=-6.434217385460821 pbc="F F F"
O        0.00000000       0.00000000       0.00000000       0.00000000       0.00000000      -0.03464188
O        0.00000000       0.00000000       5.70606061       0.00000000       0.00000000       0.03464188
2
Properties=species:S:1:pos:R:3:forces:R:3 energy=-6.436480369153834 pbc="F F F"
O        0.00000000       0.00000000       0.00000000       0.00000000       0.00000000      -0.04155241
O        0.00000000       0.00000000       5.76484848       0.00000000       0.00000000       0.04155241
2
Properties=species:S:1:pos:R:3:forces:R:3 energy=-6.43891107582162 pbc="F F F"
O        0.00000000       0.00000000       0.00000000       0.00000000       0.00000000      -0.03896451
O        0.00000000       0.00000000       5.82363636       0.00000000       0.00000000       0.03896451
2
Properties=species:S:1:pos:R:3:forces:R:3 energy=-6.4407937266840625 pbc="F F F"
O        0.00000000       0.00000000       0.00000000       0.00000000       0.00000000      -0.02374537
O        0.00000000       0.00000000       5.88242424       0.00000000       0.00000000       0.02374537
2
Properties=species:S:1:pos:R:3:forces:R:3 energy=-6.44166908355478 pbc="F F F"
O        0.00000000       0.00000000       0.00000000       0.00000000       0.00000000      -0.00675930
O        0.00000000       0.00000000       5.94121212       0.00000000       0.00000000       0.00675930
2
Properties=species:S:1:pos:R:3:forces:R:3 energy=-6.4417941195770325 pbc="F F F"
O        0.00000000       0.00000000       0.00000000       0.00000000       0.00000000       0.00018719
O        0.00000000       0.00000000       6.00000000       0.00000000       0.00000000      -0.00018719
