2
Properties=species:S:1:pos:R:3:forces:R:3 energy=611.6127170356832 pbc="F F F"
O        0.00000000       0.00000000       0.00000000       0.00000000       0.00000000  -40246.41406250
O        0.00000000       0.00000000       0.10000000       0.00000000       0.00000000   40246.41406250
2
Properties=species:S:1:pos:R:3:forces:R:3 energy=-647.2461696830668 pbc="F F F"
O        0.00000000       0.00000000       0.00000000       0.00000000       0.00000000   -9632.90332031
O        0.00000000       0.00000000       0.15959596       0.00000000       0.00000000    9632.90332031
2
Properties=species:S:1:pos:R:3:forces:R:3 energy=-1075.489394780723 pbc="F F F"
O        0.00000000       0.00000000       0.00000000       0.00000000       0.00000000   -6115.49609375
O        0.00000000       0.00000000       0.21919192       0.00000000       0.00000000    6115.49609375
2
Properties=species:S:1:pos:R:3:forces:R:3 energy=-1475.4817043510354 pbc="F F F"
O        0.00000000       0.00000000       0.00000000       0.00000000       0.00000000   -8022.75195312
O        0.00000000       0.00000000       0.27878788       0.00000000       0.00000000    8022.75195312
2
Properties=species:S:1:pos:R:3:forces:R:3 energy=-2072.7629543508374 pbc="F F F"
O        0.00000000       0.00000000       0.00000000       0.00000000       0.00000000  -15731.09375000
O        0.00000000       0.00000000       0.33838384       0.00000000       0.00000000   15731.09375000
2
Properties=species:S:1:pos:R:3:forces:R:3 energy=-1851.6080471234832 pbc="F F F"
O        0.00000000       0.00000000       0.00000000       0.00000000       0.00000000   19308.33007812
O        0.00000000       0.00000000       0.39797980       0.00000000       0.00000000  -19308.33007812
2
Properties=species:S:1:pos:R:3:forces:R:3 energy=-775.3594509308889 pbc="F F F"
O        0.00000000       0.00000000       0.00000000       0.00000000       0.00000000   16810.34179688
O        0.00000000       0.00000000       0.45757576       0.00000000       0.00000000  -16810.34179688
2
Properties=species:S:1:pos:R:3:forces:R:3 energy=-111.00798761044395 pbc="F F F"
O        0.00000000       0.00000000       0.00000000       0.00000000       0.00000000    6433.77636719
O        0.00000000       0.00000000       0.51717172       0.00000000       0.00000000   -6433.77636719
2
Properties=species:S:1:pos:R:3:forces:R:3 energy=77.12027014517867 pbc="F F F"
O        0.00000000       0.00000000       0.00000000       0.00000000       0.00000000     593.39904785
O        0.00000000       0.00000000       0.57676768       0.00000000       0.00000000    -593.39904785
2
Properties=species:S:1:pos:R:3:forces:R:3 energy=47.915768047187335 pbc="F F F"
O        0.00000000       0.00000000       0.00000000       0.00000000       0.00000000    -765.11798096
O        0.00000000       0.00000000       0.63636364       0.00000000       0.00000000     765.11798096
2
Properties=species:S:1:pos:R:3:forces:R:3 energy=23.1363147810828 pbc="F F F"
O        0.00000000       0.00000000       0.00000000       0.00000000       0.00000000    -219.03746033
O        0.00000000       0.00000000       0.69595960       0.00000000       0.00000000     219.03746033
2
Properties=species:S:1:pos:R:3:forces:R:3 energy=10.014674593914476 pbc="F F F"
O        0.00000000       0.00000000       0.00000000       0.00000000       0.00000000    -177.02919006
O        0.00000000       0.00000000       0.75555556       0.00000000       0.00000000     177.02919006
2
Properties=species:S:1:pos:R:3:forces:R:3 energy=2.4515757133702616 pbc="F F F"
O        0.00000000       0.00000000       0.00000000       0.00000000       0.00000000     -74.58484650
O        0.00000000       0.00000000       0.81515152       0.00000000       0.00000000      74.58484650
2
Properties=species:S:1:pos:R:3:forces:R:3 energy=-1.6977062270250614 pbc="F F F"
O        0.00000000       0.00000000       0.00000000       0.00000000       0.00000000     -74.62236023
O        0.00000000       0.00000000       0.87474747       0.00000000       0.00000000      74.62236023
2
Properties=species:S:1:pos:R:3:forces:R:3 energy=-5.404588172151623 pbc="F F F"
O        0.00000000       0.00000000       0.00000000       0.00000000       0.00000000     -53.17953110
O        0.00000000       0.00000000       0.93434343       0.00000000       0.00000000      53.17953110
2
Properties=species:S:1:pos:R:3:forces:R:3 energy=-8.203255052144307 pbc="F F F"
O        0.00000000       0.00000000       0.00000000       0.00000000       0.00000000     -40.19797516
O        0.00000000       0.00000000       0.99393939       0.00000000       0.00000000      40.19797516
2
Properties=species:S:1:pos:R:3:forces:R:3 energy=-10.134072560976596 pbc="F F F"
O        0.00000000       0.00000000       0.00000000       0.00000000       0.00000000     -24.62433052
O        0.00000000       0.00000000       1.05353535       0.00000000       0.00000000      24.62433052
2
Properties=species:S:1:pos:R:3:forces:R:3 energy=-11.208234930150331 pbc="F F F"
O        0.00000000       0.00000000       0.00000000       0.00000000       0.00000000     -12.25477314
O        0.00000000       0.00000000       1.11313131       0.00000000       0.00000000      12.25477314
2
Properties=species:S:1:pos:R:3:forces:R:3 energy=-11.682457007849795 pbc="F F F"
O        0.00000000       0.00000000       0.00000000       0.00000000       0.00000000      -4.24264956
O        0.00000000       0.00000000       1.17272727       0.00000000       0.00000000       4.24264956
2
Properties=species:S:1:pos:R:3:forces:R:3 energy=-11.768364917613464 pbc="F F F"
O        0.00000000       0.00000000       0.00000000       0.00000000       0.00000000       0.99121934
O        0.00000000       0.00000000       1.23232323       0.00000000       0.00000000      -0.99121934
2
Properties=species:S:1:pos:R:3:forces:R:3 energy=-11.600259067189063 pbc="F F F"
O        0.00000000       0.00000000       0.00000000       0.00000000       0.00000000       4.41256094
O        0.00000000       0.00000000       1.29191919       0.00000000       0.00000000      -4.41256094
2
Properties=species:S:1:pos:R:3:forces:R:3 energy=-11.264766826614943 pbc="F F F"
O        0.00000000       0.00000000       0.00000000       0.00000000       0.00000000       6.69480848
O        0.00000000       0.00000000       1.35151515       0.00000000       0.00000000      -6.69480848
2
Properties=species:S:1:pos:R:3:forces:R:3 energy=-10.82226981165187 pbc="F F F"
O        0.00000000       0.00000000       0.00000000       0.00000000       0.00000000       7.98482656
O        0.00000000       0.00000000       1.41111111       0.00000000       0.00000000      -7.98482656
2
Properties=species:S:1:pos:R:3:forces:R:3 energy=-10.32239002667952 pbc="F F F"
O        0.00000000       0.00000000       0.00000000       0.00000000       0.00000000       8.76518726
O        0.00000000       0.00000000       1.47070707       0.00000000       0.00000000      -8.76518726
2
Properties=species:S:1:pos:R:3:forces:R:3 energy=-9.790081262536425 pbc="F F F"
O        0.00000000       0.00000000       0.00000000       0.00000000       0.00000000       8.98115826
O        0.00000000       0.00000000       1.53030303       0.00000000       0.00000000      -8.98115826
2
Properties=species:S:1:pos:R:3:forces:R:3 energy=-9.250557968159503 pbc="F F F"
O        0.00000000       0.00000000       0.00000000       0.00000000       0.00000000       9.20279217
O        0.00000000       0.00000000       1.58989899       0.00000000       0.00000000      -9.20279217
2
Properties=species:S:1:pos:R:3:forces:R:3 energy=-8.682838840627335 pbc="F F F"
O        0.00000000       0.00000000       0.00000000       0.00000000       0.00000000       9.96469212
O        0.00000000       0.00000000       1.64949495       0.00000000       0.00000000      -9.96469212
2
Properties=species:S:1:pos:R:3:forces:R:3 energy=-8.07203408278867 pbc="F F F"
O        0.00000000       0.00000000       0.00000000       0.00000000       0.00000000       9.98233128
O        0.00000000       0.00000000       1.70909091       0.00000000       0.00000000      -9.98233128
2
Properties=species:S:1:pos:R:3:forces:R:3 energy=-7.6095653132440795 pbc="F F F"
O        0.00000000       0.00000000       0.00000000       0.00000000       0.00000000       4.65085316
O        0.00000000       0.00000000       1.76868687       0.00000000       0.00000000      -4.65085316
2
Properties=species:S:1:pos:R:3:forces:R:3 energy=-7.520821905486982 pbc="F F F"
O        0.00000000       0.00000000       0.00000000       0.00000000       0.00000000      -0.95036095
O        0.00000000       0.00000000       1.82828283       0.00000000       0.00000000       0.95036095
2
Properties=species:S:1:pos:R:3:forces:R:3 energy=-7.64547140857668 pbc="F F F"
O        0.00000000       0.00000000       0.00000000       0.00000000       0.00000000      -2.96275854
O        0.00000000       0.00000000       1.88787879       0.00000000       0.00000000       2.96275854
2
Properties=species:S:1:pos:R:3:forces:R:3 energy=-7.863280012395668 pbc="F F F"
O        0.00000000       0.00000000       0.00000000       0.00000000       0.00000000      -4.19786215
O        0.00000000       0.00000000       1.94747475       0.00000000       0.00000000       4.19786215
2
Properties=species:S:1:pos:R:3:forces:R:3 energy=-8.11065639832038 pbc="F F F"
O        0.00000000       0.00000000       0.00000000       0.00000000       0.00000000      -3.74877024
O        0.00000000       0.00000000       2.00707071       0.00000000       0.00000000       3.74877024
2
Properties=species:S:1:pos:R:3:forces:R:3 energy=-8.277739939895627 pbc="F F F"
O        0.00000000       0.00000000       0.00000000       0.00000000       0.00000000      -1.72227228
O        0.00000000       0.00000000       2.06666667       0.00000000       0.00000000       1.72227228
2
Properties=species:S:1:pos:R:3:forces:R:3 energy=-8.316041748773426 pbc="F F F"
O        0.00000000       0.00000000       0.00000000       0.00000000       0.00000000       0.32924813
O        0.00000000       0.00000000       2.12626263       0.00000000       0.00000000      -0.32924813
2
Properties=species:S:1:pos:R:3:forces:R:3 energy=-8.257029538694423 pbc="F F F"
O        0.00000000       0.00000000       0.00000000       0.00000000       0.00000000       1.48667622
O        0.00000000       0.00000000       2.18585859       0.00000000       0.00000000      -1.48667622
2
Properties=species:S:1:pos:R:3:forces:R:3 energy=-8.153901264421114 pbc="F F F"
O        0.00000000       0.00000000       0.00000000       0.00000000       0.00000000       1.90461075
O        0.00000000       0.00000000       2.24545455       0.00000000       0.00000000      -1.90461075
2
Properties=species:S:1:pos:R:3:forces:R:3 energy=-8.031733808734463 pbc="F F F"
O        0.00000000       0.00000000       0.00000000       0.00000000       0.00000000       2.21631002
O        0.00000000       0.00000000       2.30505051       0.00000000       0.00000000      -2.21631002
2
Properties=species:S:1:pos:R:3:forces:R:3 energy=-7.887583148331451 pbc="F F F"
O        0.00000000       0.00000000       0.00000000       0.00000000       0.00000000       2.61717629
O        0.00000000       0.00000000       2.36464646       0.00000000       0.00000000      -2.61717629
2
Properties=species:S:1:pos:R:3:forces:R:3 energy=-7.723720877027035 pbc="F F F"
O        0.00000000       0.00000000       0.00000000       0.00000000       0.00000000       2.82791138
O        0.00000000       0.00000000       2.42424242       0.00000000       0.00000000      -2.82791138
2
Properties=species:S:1:pos:R:3:forces:R:3 energy=-7.557381252121975 pbc="F F F"
O        0.00000000       0.00000000       0.00000000       0.00000000       0.00000000       2.70322585
O        0.00000000       0.00000000       2.48383838       0.00000000       0.00000000      -2.70322585
2
Properties=species:S:1:pos:R:3:forces:R:3 energy=-7.405902465974385 pbc="F F F"
O        0.00000000       0.00000000       0.00000000       0.00000000       0.00000000       2.35866284
O        0.00000000       0.00000000       2.54343434       0.00000000       0.00000000      -2.35866284
2
Properties=species:S:1:pos:R:3:forces:R:3 energy=-7.277322476830909 pbc="F F F"
O        0.00000000       0.00000000       0.00000000       0.00000000       0.00000000       1.95713031
O        0.00000000       0.00000000       2.60303030       0.00000000       0.00000000      -1.95713031
2
Properties=species:S:1:pos:R:3:forces:R:3 energy=-7.171875798686428 pbc="F F F"
O        0.00000000       0.00000000       0.00000000       0.00000000       0.00000000       1.59114480
O        0.00000000       0.00000000       2.66262626       0.00000000       0.00000000      -1.59114480
2
Properties=species:S:1:pos:R:3:forces:R:3 energy=-7.0864166461293685 pbc="F F F"
O        0.00000000       0.00000000       0.00000000       0.00000000       0.00000000       1.28732193
O        0.00000000       0.00000000       2.72222222       0.00000000       0.00000000      -1.28732193
2
Properties=species:S:1:pos:R:3:forces:R:3 energy=-7.017281866025471 pbc="F F F"
O        0.00000000       0.00000000       0.00000000       0.00000000       0.00000000       1.04154611
O        0.00000000       0.00000000       2.78181818       0.00000000       0.00000000      -1.04154611
2
Properties=species:S:1:pos:R:3:forces:R:3 energy=-6.96133044549251 pbc="F F F"
O        0.00000000       0.00000000       0.00000000       0.00000000       0.00000000       0.84332943
O        0.00000000       0.00000000       2.84141414       0.00000000       0.00000000      -0.84332943
2
Properties=species:S:1:pos:R:3:forces:R:3 energy=-6.915977846551548 pbc="F F F"
O        0.00000000       0.00000000       0.00000000       0.00000000       0.00000000       0.68482959
O        0.00000000       0.00000000       2.90101010       0.00000000       0.00000000      -0.68482959
2
Properties=species:S:1:pos:R:3:forces:R:3 energy=-6.879012423425052 pbc="F F F"
O        0.00000000       0.00000000       0.00000000       0.00000000       0.00000000       0.56118226
O        0.00000000       0.00000000       2.96060606       0.00000000       0.00000000      -0.56118226
2
Properties=species:S:1:pos:R:3:forces:R:3 energy=-6.848477649698482 pbc="F F F"
O        0.00000000       0.00000000       0.00000000       0.00000000       0.00000000       0.46828070
O        0.00000000       0.00000000       3.02020202       0.00000000       0.00000000      -0.46828070
2
Properties=species:S:1:pos:R:3:forces:R:3 energy=-6.822682133286537 pbc="F F F"
O        0.00000000       0.00000000       0.00000000       0.00000000       0.00000000       0.40124640
O        0.00000000       0.00000000       3.07979798       0.00000000       0.00000000      -0.40124640
2
Properties=species:S:1:pos:R:3:forces:R:3 energy=-6.8002534966561665 pbc="F F F"
O        0.00000000       0.00000000       0.00000000       0.00000000       0.00000000       0.35429770
O        0.00000000       0.00000000       3.13939394       0.00000000       0.00000000      -0.35429770
2
Properties=species:S:1:pos:R:3:forces:R:3 energy=-6.780173671091807 pbc="F F F"
O        0.00000000       0.00000000       0.00000000       0.00000000       0.00000000       0.32144272
O        0.00000000       0.00000000       3.19898990       0.00000000       0.00000000      -0.32144272
2
Properties=species:S:1:pos:R:3:forces:R:3 energy=-6.761766499325247 pbc="F F F"
O        0.00000000       0.00000000       0.00000000       0.00000000       0.00000000       0.29736719
O        0.00000000       0.00000000       3.25858586       0.00000000       0.00000000      -0.29736719
2
Properties=species:S:1:pos:R:3:forces:R:3 energy=-6.7446362233442345 pbc="F F F"
O        0.00000000       0.00000000       0.00000000       0.00000000       0.00000000       0.27805966
O        0.00000000       0.00000000       3.31818182       0.00000000       0.00000000      -0.27805966
2
Properties=species:S:1:pos:R:3:forces:R:3 energy=-6.728578317823777 pbc="F F F"
O        0.00000000       0.00000000       0.00000000       0.00000000       0.00000000       0.26108372
O        0.00000000       0.00000000       3.37777778       0.00000000       0.00000000      -0.26108372
2
Properties=species:S:1:pos:R:3:forces:R:3 energy=-6.713489849789118 pbc="F F F"
O        0.00000000       0.00000000       0.00000000       0.00000000       0.00000000       0.24549726
O        0.00000000       0.00000000       3.43737374       0.00000000       0.00000000      -0.24549726
2
Properties=species:S:1:pos:R:3:forces:R:3 energy=-6.699285074379962 pbc="F F F"
O        0.00000000       0.00000000       0.00000000       0.00000000       0.00000000       0.23153850
O        0.00000000       0.00000000       3.49696970       0.00000000       0.00000000      -0.23153850
2
Properties=species:S:1:pos:R:3:forces:R:3 energy=-6.685842029880712 pbc="F F F"
O        0.00000000       0.00000000       0.00000000       0.00000000       0.00000000       0.22014642
O        0.00000000       0.00000000       3.55656566       0.00000000       0.00000000      -0.22014642
2
Properties=species:S:1:pos:R:3:forces:R:3 energy=-6.6729720227162 pbc="F F F"
O        0.00000000       0.00000000       0.00000000       0.00000000       0.00000000       0.21244454
O        0.00000000       0.00000000       3.61616162       0.00000000       0.00000000      -0.21244454
2
Properties=species:S:1:pos:R:3:forces:R:3 energy=-6.660430113018439 pbc="F F F"
O        0.00000000       0.00000000       0.00000000       0.00000000       0.00000000       0.20926079
O        0.00000000       0.00000000       3.67575758       0.00000000       0.00000000      -0.20926079
2
Properties=species:S:1:pos:R:3:forces:R:3 energy=-6.6479360963525345 pbc="F F F"
O        0.00000000       0.00000000       0.00000000       0.00000000       0.00000000       0.21079153
O        0.00000000       0.00000000       3.73535354       0.00000000       0.00000000      -0.21079153
2
Properties=species:S:1:pos:R:3:forces:R:3 energy=-6.635222182284795 pbc="F F F"
O        0.00000000       0.00000000       0.00000000       0.00000000       0.00000000       0.21645594
O        0.00000000       0.00000000       3.79494949       0.00000000       0.00000000      -0.21645594
2
Properties=species:S:1:pos:R:3:forces:R:3 energy=-6.622079246003164 pbc="F F F"
O        0.00000000       0.00000000       0.00000000       0.00000000       0.00000000       0.22495899
O        0.00000000       0.00000000       3.85454545       0.00000000       0.00000000      -0.22495899
2
Properties=species:S:1:pos:R:3:forces:R:3 energy=-6.608387818574738 pbc="F F F"
O        0.00000000       0.00000000       0.00000000       0.00000000       0.00000000       0.23454790
O        0.00000000       0.00000000       3.91414141       0.00000000       0.00000000      -0.23454790
2
Properties=species:S:1:pos:R:3:forces:R:3 energy=-6.594138585498876 pbc="F F F"
O        0.00000000       0.00000000       0.00000000       0.00000000       0.00000000       0.24336535
O        0.00000000       0.00000000       3.97373737       0.00000000       0.00000000      -0.24336535
2
Properties=species:S:1:pos:R:3:forces:R:3 energy=-6.579427139122592 pbc="F F F"
O        0.00000000       0.00000000       0.00000000       0.00000000       0.00000000       0.24982415
O        0.00000000       0.00000000       4.03333333       0.00000000       0.00000000      -0.24982415
2
Properties=species:S:1:pos:R:3:forces:R:3 energy=-6.564429654698778 pbc="F F F"
O        0.00000000       0.00000000       0.00000000       0.00000000       0.00000000       0.25285012
O        0.00000000       0.00000000       4.09292929       0.00000000       0.00000000      -0.25285012
2
Properties=species:S:1:pos:R:3:forces:R:3 energy=-6.54936760057572 pbc="F F F"
O        0.00000000       0.00000000       0.00000000       0.00000000       0.00000000       0.25196964
O        0.00000000       0.00000000       4.15252525       0.00000000       0.00000000      -0.25196964
2
Properties=species:S:1:pos:R:3:forces:R:3 energy=-6.5344753082216185 pbc="F F F"
O        0.00000000       0.00000000       0.00000000       0.00000000       0.00000000       0.24720626
O        0.00000000       0.00000000       4.21212121       0.00000000       0.00000000      -0.24720626
2
Properties=species:S:1:pos:R:3:forces:R:3 energy=-6.519973744695972 pbc="F F F"
O        0.00000000       0.00000000       0.00000000       0.00000000       0.00000000       0.23886997
O        0.00000000       0.00000000       4.27171717       0.00000000       0.00000000      -0.23886997
2
Properties=species:S:1:pos:R:3:forces:R:3 energy=-6.50606621745236 pbc="F F F"
O        0.00000000       0.00000000       0.00000000       0.00000000       0.00000000       0.22735827
O        0.00000000       0.00000000       4.33131313       0.00000000       0.00000000      -0.22735827
2
Properties=species:S:1:pos:R:3:forces:R:3 energy=-6.492930265433904 pbc="F F F"
O        0.00000000       0.00000000       0.00000000       0.00000000       0.00000000       0.21304888
O        0.00000000       0.00000000       4.39090909       0.00000000       0.00000000      -0.21304888
2
Properties=species:S:1:pos:R:3:forces:R:3 energy=-6.480720520888167 pbc="F F F"
O        0.00000000       0.00000000       0.00000000       0.00000000       0.00000000       0.19631314
O        0.00000000       0.00000000       4.45050505       0.00000000       0.00000000      -0.19631314
2
Properties=species:S:1:pos:R:3:forces:R:3 energy=-6.4695706143894265 pbc="F F F"
O        0.00000000       0.00000000       0.00000000       0.00000000       0.00000000       0.17758650
O        0.00000000       0.00000000       4.51010101       0.00000000       0.00000000      -0.17758650
2
Properties=species:S:1:pos:R:3:forces:R:3 energy=-6.459582683332245 pbc="F F F"
O        0.00000000       0.00000000       0.00000000       0.00000000       0.00000000       0.15741791
O        0.00000000       0.00000000       4.56969697       0.00000000       0.00000000      -0.15741791
2
Properties=species:S:1:pos:R:3:forces:R:3 energy=-6.450823084109345 pbc="F F F"
O        0.00000000       0.00000000       0.00000000       0.00000000       0.00000000       0.13647623
O        0.00000000       0.00000000       4.62929293       0.00000000       0.00000000      -0.13647623
2
Properties=species:S:1:pos:R:3:forces:R:3 energy=-6.443316667788836 pbc="F F F"
O        0.00000000       0.00000000       0.00000000       0.00000000       0.00000000       0.11548083
O        0.00000000       0.00000000       4.68888889       0.00000000       0.00000000      -0.11548083
2
Properties=species:S:1:pos:R:3:forces:R:3 energy=-6.437046307187334 pbc="F F F"
O        0.00000000       0.00000000       0.00000000       0.00000000       0.00000000       0.09509504
O        0.00000000       0.00000000       4.74848485       0.00000000       0.00000000      -0.09509504
2
Properties=species:S:1:pos:R:3:forces:R:3 energy=-6.431960047793931 pbc="F F F"
O        0.00000000       0.00000000       0.00000000       0.00000000       0.00000000       0.07584222
O        0.00000000       0.00000000       4.80808081       0.00000000       0.00000000      -0.07584222
2
Properties=species:S:1:pos:R:3:forces:R:3 energy=-6.427977788539124 pbc="F F F"
O        0.00000000       0.00000000       0.00000000       0.00000000       0.00000000       0.05803969
O        0.00000000       0.00000000       4.86767677       0.00000000       0.00000000      -0.05803969
2
Properties=species:S:1:pos:R:3:forces:R:3 energy=-6.425010355380137 pbc="F F F"
O        0.00000000       0.00000000       0.00000000       0.00000000       0.00000000       0.04180782
O        0.00000000       0.00000000       4.92727273       0.00000000       0.00000000      -0.04180782
2
Properties=species:S:1:pos:R:3:forces:R:3 energy=-6.422963317285117 pbc="F F F"
O        0.00000000       0.00000000       0.00000000       0.00000000       0.00000000       0.02715024
O        0.00000000       0.00000000       4.98686869       0.00000000       0.00000000      -0.02715024
2
Properties=species:S:1:pos:R:3:forces:R:3 energy=-6.421742711298358 pbc="F F F"
O        0.00000000       0.00000000       0.00000000       0.00000000       0.00000000       0.01409224
O        0.00000000       0.00000000       5.04646465       0.00000000       0.00000000      -0.01409224
2
Properties=species:S:1:pos:R:3:forces:R:3 energy=-6.421248843459261 pbc="F F F"
O        0.00000000       0.00000000       0.00000000       0.00000000       0.00000000       0.00277367
O        0.00000000       0.00000000       5.10606061       0.00000000       0.00000000      -0.00277367
2
Properties=species:S:1:pos:R:3:forces:R:3 energy=-6.42137295475351 pbc="F F F"
O        0.00000000       0.00000000       0.00000000       0.00000000       0.00000000      -0.00660679
O        0.00000000       0.00000000       5.16565657       0.00000000       0.00000000       0.00660679
2
Properties=species:S:1:pos:R:3:forces:R:3 energy=-6.421997220915081 pbc="F F F"
O        0.00000000       0.00000000       0.00000000       0.00000000       0.00000000      -0.01402423
O        0.00000000       0.00000000       5.22525253       0.00000000       0.00000000       0.01402423
2
Properties=species:S:1:pos:R:3:forces:R:3 energy=-6.423010965780577 pbc="F F F"
O        0.00000000       0.00000000       0.00000000       0.00000000       0.00000000      -0.01972539
O        0.00000000       0.00000000       5.28484848       0.00000000       0.00000000       0.01972539
2
Properties=species:S:1:pos:R:3:forces:R:3 energy=-6.424316386131712 pbc="F F F"
O        0.00000000       0.00000000       0.00000000       0.00000000       0.00000000      -0.02379867
O        0.00000000       0.00000000       5.34444444       0.00000000       0.00000000       0.02379867
2
Properties=species:S:1:pos:R:3:forces:R:3 energy=-6.4258056626950175 pbc="F F F"
O        0.00000000       0.00000000       0.00000000       0.00000000       0.00000000      -0.02580067
O        0.00000000       0.00000000       5.40404040       0.00000000       0.00000000       0.02580067
2
Properties=species:S:1:pos:R:3:forces:R:3 energy=-6.427356670587309 pbc="F F F"
O        0.00000000       0.00000000       0.00000000       0.00000000       0.00000000      -0.02610825
O        0.00000000       0.00000000       5.46363636       0.00000000       0.00000000       0.02610825
2
Properties=species:S:1:pos:R:3:forces:R:3 energy=-6.42892643917595 pbc="F F F"
O        0.00000000       0.00000000       0.00000000       0.00000000       0.00000000      -0.02677910
O        0.00000000       0.00000000       5.52323232       0.00000000       0.00000000       0.02677910
2
Properties=species:S:1:pos:R:3:forces:R:3 energy=-6.430555445296191 pbc="F F F"
O        0.00000000       0.00000000       0.00000000       0.00000000       0.00000000      -0.02775469
O        0.00000000       0.00000000       5.58282828       0.00000000       0.00000000       0.02775469
2
Properties=species:S:1:pos:R:3:forces:R:3 energy=-6.432230283258645 pbc="F F F"
O        0.00000000       0.00000000       0.00000000       0.00000000       0.00000000      -0.02880687
O        0.00000000       0.00000000       5.64242424       0.00000000       0.00000000       0.02880687
2
Properties=species:S:1:pos:R:3:forces:R:3 energy=-6.434080600105301 pbc="F F F"
O        0.00000000       0.00000000       0.00000000       0.00000000       0.00000000      -0.03413636
O        0.00000000       0.00000000       5.70202020       0.00000000       0.00000000       0.03413636
2
Properties=species:S:1:pos:R:3:forces:R:3 energy=-6.436340471502723 pbc="F F F"
O        0.00000000       0.00000000       0.00000000       0.00000000       0.00000000      -0.04127125
O        0.00000000       0.00000000       5.76161616       0.00000000       0.00000000       0.04127125
2
Properties=species:S:1:pos:R:3:forces:R:3 energy=-6.438814821283747 pbc="F F F"
O        0.00000000       0.00000000       0.00000000       0.00000000       0.00000000      -0.03934161
O        0.00000000       0.00000000       5.82121212       0.00000000       0.00000000       0.03934161
2
Properties=species:S:1:pos:R:3:forces:R:3 energy=-6.44075019889935 pbc="F F F"
O        0.00000000       0.00000000       0.00000000       0.00000000       0.00000000      -0.02424094
O        0.00000000       0.00000000       5.88080808       0.00000000       0.00000000       0.02424094
2
Properties=species:S:1:pos:R:3:forces:R:3 energy=-6.441664952713084 pbc="F F F"
O        0.00000000       0.00000000       0.00000000       0.00000000       0.00000000      -0.00694225
O        0.00000000       0.00000000       5.94040404       0.00000000       0.00000000       0.00694225
2
Properties=species:S:1:pos:R:3:forces:R:3 energy=-6.4417941195770325 pbc="F F F"
O        0.00000000       0.00000000       0.00000000       0.00000000       0.00000000       0.00018719
O        0.00000000       0.00000000       6.00000000       0.00000000       0.00000000      -0.00018719
