2
Properties=species:S:1:pos:R:3:forces:R:3 energy=-4082.384824066665 pbc="F F F"
P        0.00000000       0.00000000       0.00000000       0.00000000       0.00000000  -17826.69921875
P        0.00000000       0.00000000       0.18000000       0.00000000       0.00000000   17826.69921875
2
Properties=species:S:1:pos:R:3:forces:R:3 energy=-4321.14239242604 pbc="F F F"
P        0.00000000       0.00000000       0.00000000       0.00000000       0.00000000    6803.27148438
P        0.00000000       0.00000000       0.23878788       0.00000000       0.00000000   -6803.27148438
2
Properties=species:S:1:pos:R:3:forces:R:3 energy=-3416.7608006283726 pbc="F F F"
P        0.00000000       0.00000000       0.00000000       0.00000000       0.00000000   23190.27148438
P        0.00000000       0.00000000       0.29757576       0.00000000       0.00000000  -23190.27148438
2
Properties=species:S:1:pos:R:3:forces:R:3 energy=-1832.6928074643101 pbc="F F F"
P        0.00000000       0.00000000       0.00000000       0.00000000       0.00000000   27251.10937500
P        0.00000000       0.00000000       0.35636364       0.00000000       0.00000000  -27251.10937500
2
Properties=species:S:1:pos:R:3:forces:R:3 energy=938.2424952724406 pbc="F F F"
P        0.00000000       0.00000000       0.00000000       0.00000000       0.00000000   37910.18750000
P        0.00000000       0.00000000       0.41515152       0.00000000       0.00000000  -37910.18750000
2
Properties=species:S:1:pos:R:3:forces:R:3 energy=1825.9295069935665 pbc="F F F"
P        0.00000000       0.00000000       0.00000000       0.00000000       0.00000000    2971.02954102
P        0.00000000       0.00000000       0.47393939       0.00000000       0.00000000   -2971.02954102
2
Properties=species:S:1:pos:R:3:forces:R:3 energy=1642.4729640303601 pbc="F F F"
P        0.00000000       0.00000000       0.00000000       0.00000000       0.00000000  -11431.20703125
P        0.00000000       0.00000000       0.53272727       0.00000000       0.00000000   11431.20703125
2
Properties=species:S:1:pos:R:3:forces:R:3 energy=480.5595424090043 pbc="F F F"
P        0.00000000       0.00000000       0.00000000       0.00000000       0.00000000  -10462.51660156
P        0.00000000       0.00000000       0.59151515       0.00000000       0.00000000   10462.51660156
2
Properties=species:S:1:pos:R:3:forces:R:3 energy=366.13843036350454 pbc="F F F"
P        0.00000000       0.00000000       0.00000000       0.00000000       0.00000000    2467.73071289
P        0.00000000       0.00000000       0.65030303       0.00000000       0.00000000   -2467.73071289
2
Properties=species:S:1:pos:R:3:forces:R:3 energy=535.458681852899 pbc="F F F"
P        0.00000000       0.00000000       0.00000000       0.00000000       0.00000000    -350.21572876
P        0.00000000       0.00000000       0.70909091       0.00000000       0.00000000     350.21572876
2
Properties=species:S:1:pos:R:3:forces:R:3 energy=487.2662685576668 pbc="F F F"
P        0.00000000       0.00000000       0.00000000       0.00000000       0.00000000   -1070.03540039
P        0.00000000       0.00000000       0.76787879       0.00000000       0.00000000    1070.03540039
2
Properties=species:S:1:pos:R:3:forces:R:3 energy=454.8461025974787 pbc="F F F"
P        0.00000000       0.00000000       0.00000000       0.00000000       0.00000000    -486.03784180
P        0.00000000       0.00000000       0.82666667       0.00000000       0.00000000     486.03784180
2
Properties=species:S:1:pos:R:3:forces:R:3 energy=362.2734403199908 pbc="F F F"
P        0.00000000       0.00000000       0.00000000       0.00000000       0.00000000   -2406.87890625
P        0.00000000       0.00000000       0.88545455       0.00000000       0.00000000    2406.87890625
2
Properties=species:S:1:pos:R:3:forces:R:3 energy=208.29187304409234 pbc="F F F"
P        0.00000000       0.00000000       0.00000000       0.00000000       0.00000000   -2278.55834961
P        0.00000000       0.00000000       0.94424242       0.00000000       0.00000000    2278.55834961
2
Properties=species:S:1:pos:R:3:forces:R:3 energy=91.74422762175645 pbc="F F F"
P        0.00000000       0.00000000       0.00000000       0.00000000       0.00000000    -963.60681152
P        0.00000000       0.00000000       1.00303030       0.00000000       0.00000000     963.60681152
2
Properties=species:S:1:pos:R:3:forces:R:3 energy=59.597575598065646 pbc="F F F"
P        0.00000000       0.00000000       0.00000000       0.00000000       0.00000000    -507.14929199
P        0.00000000       0.00000000       1.06181818       0.00000000       0.00000000     507.14929199
2
Properties=species:S:1:pos:R:3:forces:R:3 energy=30.17419596133968 pbc="F F F"
P        0.00000000       0.00000000       0.00000000       0.00000000       0.00000000    -370.93746948
P        0.00000000       0.00000000       1.12060606       0.00000000       0.00000000     370.93746948
2
Properties=species:S:1:pos:R:3:forces:R:3 energy=17.484499036255563 pbc="F F F"
P        0.00000000       0.00000000       0.00000000       0.00000000       0.00000000    -129.24728394
P        0.00000000       0.00000000       1.17939394       0.00000000       0.00000000     129.24728394
2
Properties=species:S:1:pos:R:3:forces:R:3 energy=10.341955681482364 pbc="F F F"
P        0.00000000       0.00000000       0.00000000       0.00000000       0.00000000    -123.12534332
P        0.00000000       0.00000000       1.23818182       0.00000000       0.00000000     123.12534332
2
Properties=species:S:1:pos:R:3:forces:R:3 energy=3.578858475165584 pbc="F F F"
P        0.00000000       0.00000000       0.00000000       0.00000000       0.00000000     -95.24873352
P        0.00000000       0.00000000       1.29696970       0.00000000       0.00000000      95.24873352
2
Properties=species:S:1:pos:R:3:forces:R:3 energy=-1.0125590902501522 pbc="F F F"
P        0.00000000       0.00000000       0.00000000       0.00000000       0.00000000     -70.12176514
P        0.00000000       0.00000000       1.35575758       0.00000000       0.00000000      70.12176514
2
Properties=species:S:1:pos:R:3:forces:R:3 energy=-5.133838408468141 pbc="F F F"
P        0.00000000       0.00000000       0.00000000       0.00000000       0.00000000     -68.86376190
P        0.00000000       0.00000000       1.41454545       0.00000000       0.00000000      68.86376190
2
Properties=species:S:1:pos:R:3:forces:R:3 energy=-8.787531957909978 pbc="F F F"
P        0.00000000       0.00000000       0.00000000       0.00000000       0.00000000     -53.40058517
P        0.00000000       0.00000000       1.47333333       0.00000000       0.00000000      53.40058517
2
Properties=species:S:1:pos:R:3:forces:R:3 energy=-11.400136680760394 pbc="F F F"
P        0.00000000       0.00000000       0.00000000       0.00000000       0.00000000     -36.61129379
P        0.00000000       0.00000000       1.53212121       0.00000000       0.00000000      36.61129379
2
Properties=species:S:1:pos:R:3:forces:R:3 energy=-13.214701682166483 pbc="F F F"
P        0.00000000       0.00000000       0.00000000       0.00000000       0.00000000     -25.78029633
P        0.00000000       0.00000000       1.59090909       0.00000000       0.00000000      25.78029633
2
Properties=species:S:1:pos:R:3:forces:R:3 energy=-14.479822149175028 pbc="F F F"
P        0.00000000       0.00000000       0.00000000       0.00000000       0.00000000     -17.57205582
P        0.00000000       0.00000000       1.64969697       0.00000000       0.00000000      17.57205582
2
Properties=species:S:1:pos:R:3:forces:R:3 energy=-15.315870800149845 pbc="F F F"
P        0.00000000       0.00000000       0.00000000       0.00000000       0.00000000     -11.15633965
P        0.00000000       0.00000000       1.70848485       0.00000000       0.00000000      11.15633965
2
Properties=species:S:1:pos:R:3:forces:R:3 energy=-15.822272893927073 pbc="F F F"
P        0.00000000       0.00000000       0.00000000       0.00000000       0.00000000      -6.30776119
P        0.00000000       0.00000000       1.76727273       0.00000000       0.00000000       6.30776119
2
Properties=species:S:1:pos:R:3:forces:R:3 energy=-16.082227860268308 pbc="F F F"
P        0.00000000       0.00000000       0.00000000       0.00000000       0.00000000      -2.71806145
P        0.00000000       0.00000000       1.82606061       0.00000000       0.00000000       2.71806145
2
Properties=species:S:1:pos:R:3:forces:R:3 energy=-16.15960510500787 pbc="F F F"
P        0.00000000       0.00000000       0.00000000       0.00000000       0.00000000      -0.03656523
P        0.00000000       0.00000000       1.88484848       0.00000000       0.00000000       0.03656523
2
Properties=species:S:1:pos:R:3:forces:R:3 energy=-16.09877329047082 pbc="F F F"
P        0.00000000       0.00000000       0.00000000       0.00000000       0.00000000       2.01129699
P        0.00000000       0.00000000       1.94363636       0.00000000       0.00000000      -2.01129699
2
Properties=species:S:1:pos:R:3:forces:R:3 energy=-15.93405603057534 pbc="F F F"
P        0.00000000       0.00000000       0.00000000       0.00000000       0.00000000       3.50136185
P        0.00000000       0.00000000       2.00242424       0.00000000       0.00000000      -3.50136185
2
Properties=species:S:1:pos:R:3:forces:R:3 energy=-15.697083748714874 pbc="F F F"
P        0.00000000       0.00000000       0.00000000       0.00000000       0.00000000       4.48496103
P        0.00000000       0.00000000       2.06121212       0.00000000       0.00000000      -4.48496103
2
Properties=species:S:1:pos:R:3:forces:R:3 energy=-15.41437995261394 pbc="F F F"
P        0.00000000       0.00000000       0.00000000       0.00000000       0.00000000       5.07665539
P        0.00000000       0.00000000       2.12000000       0.00000000       0.00000000      -5.07665539
2
Properties=species:S:1:pos:R:3:forces:R:3 energy=-15.106239700660737 pbc="F F F"
P        0.00000000       0.00000000       0.00000000       0.00000000       0.00000000       5.35696554
P        0.00000000       0.00000000       2.17878788       0.00000000       0.00000000      -5.35696554
2
Properties=species:S:1:pos:R:3:forces:R:3 energy=-14.790456576182818 pbc="F F F"
P        0.00000000       0.00000000       0.00000000       0.00000000       0.00000000       5.33416891
P        0.00000000       0.00000000       2.23757576       0.00000000       0.00000000      -5.33416891
2
Properties=species:S:1:pos:R:3:forces:R:3 energy=-14.485230445189549 pbc="F F F"
P        0.00000000       0.00000000       0.00000000       0.00000000       0.00000000       4.99967098
P        0.00000000       0.00000000       2.29636364       0.00000000       0.00000000      -4.99967098
2
Properties=species:S:1:pos:R:3:forces:R:3 energy=-14.207596784075337 pbc="F F F"
P        0.00000000       0.00000000       0.00000000       0.00000000       0.00000000       4.41517115
P        0.00000000       0.00000000       2.35515152       0.00000000       0.00000000      -4.41517115
2
Properties=species:S:1:pos:R:3:forces:R:3 energy=-13.967576838986936 pbc="F F F"
P        0.00000000       0.00000000       0.00000000       0.00000000       0.00000000       3.76016164
P        0.00000000       0.00000000       2.41393939       0.00000000       0.00000000      -3.76016164
2
Properties=species:S:1:pos:R:3:forces:R:3 energy=-13.760997487922948 pbc="F F F"
P        0.00000000       0.00000000       0.00000000       0.00000000       0.00000000       3.33731008
P        0.00000000       0.00000000       2.47272727       0.00000000       0.00000000      -3.33731008
2
Properties=species:S:1:pos:R:3:forces:R:3 energy=-13.563995314642819 pbc="F F F"
P        0.00000000       0.00000000       0.00000000       0.00000000       0.00000000       3.47211719
P        0.00000000       0.00000000       2.53151515       0.00000000       0.00000000      -3.47211719
2
Properties=species:S:1:pos:R:3:forces:R:3 energy=-13.342609835611386 pbc="F F F"
P        0.00000000       0.00000000       0.00000000       0.00000000       0.00000000       4.10152817
P        0.00000000       0.00000000       2.59030303       0.00000000       0.00000000      -4.10152817
2
Properties=species:S:1:pos:R:3:forces:R:3 energy=-13.08428002948148 pbc="F F F"
P        0.00000000       0.00000000       0.00000000       0.00000000       0.00000000       4.60601044
P        0.00000000       0.00000000       2.64909091       0.00000000       0.00000000      -4.60601044
2
Properties=species:S:1:pos:R:3:forces:R:3 energy=-12.814296976561113 pbc="F F F"
P        0.00000000       0.00000000       0.00000000       0.00000000       0.00000000       4.46017742
P        0.00000000       0.00000000       2.70787879       0.00000000       0.00000000      -4.46017742
2
Properties=species:S:1:pos:R:3:forces:R:3 energy=-12.570713546820595 pbc="F F F"
P        0.00000000       0.00000000       0.00000000       0.00000000       0.00000000       3.77287698
P        0.00000000       0.00000000       2.76666667       0.00000000       0.00000000      -3.77287698
2
Properties=species:S:1:pos:R:3:forces:R:3 energy=-12.372340144246452 pbc="F F F"
P        0.00000000       0.00000000       0.00000000       0.00000000       0.00000000       2.99460149
P        0.00000000       0.00000000       2.82545455       0.00000000       0.00000000      -2.99460149
2
Properties=species:S:1:pos:R:3:forces:R:3 energy=-12.214412647049915 pbc="F F F"
P        0.00000000       0.00000000       0.00000000       0.00000000       0.00000000       2.42135954
P        0.00000000       0.00000000       2.88424242       0.00000000       0.00000000      -2.42135954
2
Properties=species:S:1:pos:R:3:forces:R:3 energy=-12.082940147124155 pbc="F F F"
P        0.00000000       0.00000000       0.00000000       0.00000000       0.00000000       2.08434248
P        0.00000000       0.00000000       2.94303030       0.00000000       0.00000000      -2.08434248
2
Properties=species:S:1:pos:R:3:forces:R:3 energy=-11.966542604743356 pbc="F F F"
P        0.00000000       0.00000000       0.00000000       0.00000000       0.00000000       1.89068496
P        0.00000000       0.00000000       3.00181818       0.00000000       0.00000000      -1.89068496
2
Properties=species:S:1:pos:R:3:forces:R:3 energy=-11.859670602073217 pbc="F F F"
P        0.00000000       0.00000000       0.00000000       0.00000000       0.00000000       1.74828506
P        0.00000000       0.00000000       3.06060606       0.00000000       0.00000000      -1.74828506
2
Properties=species:S:1:pos:R:3:forces:R:3 energy=-11.760957998519396 pbc="F F F"
P        0.00000000       0.00000000       0.00000000       0.00000000       0.00000000       1.60867715
P        0.00000000       0.00000000       3.11939394       0.00000000       0.00000000      -1.60867715
2
Properties=species:S:1:pos:R:3:forces:R:3 energy=-11.670688331378095 pbc="F F F"
P        0.00000000       0.00000000       0.00000000       0.00000000       0.00000000       1.46145272
P        0.00000000       0.00000000       3.17818182       0.00000000       0.00000000      -1.46145272
2
Properties=species:S:1:pos:R:3:forces:R:3 energy=-11.589123359451474 pbc="F F F"
P        0.00000000       0.00000000       0.00000000       0.00000000       0.00000000       1.31447566
P        0.00000000       0.00000000       3.23696970       0.00000000       0.00000000      -1.31447566
2
Properties=species:S:1:pos:R:3:forces:R:3 energy=-11.515937255729384 pbc="F F F"
P        0.00000000       0.00000000       0.00000000       0.00000000       0.00000000       1.17754531
P        0.00000000       0.00000000       3.29575758       0.00000000       0.00000000      -1.17754531
2
Properties=species:S:1:pos:R:3:forces:R:3 energy=-11.450386618803226 pbc="F F F"
P        0.00000000       0.00000000       0.00000000       0.00000000       0.00000000       1.05493629
P        0.00000000       0.00000000       3.35454545       0.00000000       0.00000000      -1.05493629
2
Properties=species:S:1:pos:R:3:forces:R:3 energy=-11.391648719809686 pbc="F F F"
P        0.00000000       0.00000000       0.00000000       0.00000000       0.00000000       0.94523090
P        0.00000000       0.00000000       3.41333333       0.00000000       0.00000000      -0.94523090
2
Properties=species:S:1:pos:R:3:forces:R:3 energy=-11.339075667643504 pbc="F F F"
P        0.00000000       0.00000000       0.00000000       0.00000000       0.00000000       0.84445435
P        0.00000000       0.00000000       3.47212121       0.00000000       0.00000000      -0.84445435
2
Properties=species:S:1:pos:R:3:forces:R:3 energy=-11.292255730801632 pbc="F F F"
P        0.00000000       0.00000000       0.00000000       0.00000000       0.00000000       0.74910653
P        0.00000000       0.00000000       3.53090909       0.00000000       0.00000000      -0.74910653
2
Properties=species:S:1:pos:R:3:forces:R:3 energy=-11.25092577357634 pbc="F F F"
P        0.00000000       0.00000000       0.00000000       0.00000000       0.00000000       0.65754664
P        0.00000000       0.00000000       3.58969697       0.00000000       0.00000000      -0.65754664
2
Properties=species:S:1:pos:R:3:forces:R:3 energy=-11.21486930001847 pbc="F F F"
P        0.00000000       0.00000000       0.00000000       0.00000000       0.00000000       0.56985492
P        0.00000000       0.00000000       3.64848485       0.00000000       0.00000000      -0.56985492
2
Properties=species:S:1:pos:R:3:forces:R:3 energy=-11.183831629192342 pbc="F F F"
P        0.00000000       0.00000000       0.00000000       0.00000000       0.00000000       0.48693144
P        0.00000000       0.00000000       3.70727273       0.00000000       0.00000000      -0.48693144
2
Properties=species:S:1:pos:R:3:forces:R:3 energy=-11.157507537007422 pbc="F F F"
P        0.00000000       0.00000000       0.00000000       0.00000000       0.00000000       0.40959880
P        0.00000000       0.00000000       3.76606061       0.00000000       0.00000000      -0.40959880
2
Properties=species:S:1:pos:R:3:forces:R:3 energy=-11.135557486896666 pbc="F F F"
P        0.00000000       0.00000000       0.00000000       0.00000000       0.00000000       0.33813888
P        0.00000000       0.00000000       3.82484848       0.00000000       0.00000000      -0.33813888
2
Properties=species:S:1:pos:R:3:forces:R:3 energy=-11.11764102029694 pbc="F F F"
P        0.00000000       0.00000000       0.00000000       0.00000000       0.00000000       0.27224538
P        0.00000000       0.00000000       3.88363636       0.00000000       0.00000000      -0.27224538
2
Properties=species:S:1:pos:R:3:forces:R:3 energy=-11.103451107931338 pbc="F F F"
P        0.00000000       0.00000000       0.00000000       0.00000000       0.00000000       0.21129729
P        0.00000000       0.00000000       3.94242424       0.00000000       0.00000000      -0.21129729
2
Properties=species:S:1:pos:R:3:forces:R:3 energy=-11.092713205638333 pbc="F F F"
P        0.00000000       0.00000000       0.00000000       0.00000000       0.00000000       0.15470035
P        0.00000000       0.00000000       4.00121212       0.00000000       0.00000000      -0.15470035
2
Properties=species:S:1:pos:R:3:forces:R:3 energy=-11.085182387805137 pbc="F F F"
P        0.00000000       0.00000000       0.00000000       0.00000000       0.00000000       0.10218129
P        0.00000000       0.00000000       4.06000000       0.00000000       0.00000000      -0.10218129
2
Properties=species:S:1:pos:R:3:forces:R:3 energy=-11.080615706651638 pbc="F F F"
P        0.00000000       0.00000000       0.00000000       0.00000000       0.00000000       0.05392286
P        0.00000000       0.00000000       4.11878788       0.00000000       0.00000000      -0.05392286
2
Properties=species:S:1:pos:R:3:forces:R:3 energy=-11.078747395906221 pbc="F F F"
P        0.00000000       0.00000000       0.00000000       0.00000000       0.00000000       0.01051495
P        0.00000000       0.00000000       4.17757576       0.00000000       0.00000000      -0.01051495
2
Properties=species:S:1:pos:R:3:forces:R:3 energy=-11.079267888386887 pbc="F F F"
P        0.00000000       0.00000000       0.00000000       0.00000000       0.00000000      -0.02721101
P        0.00000000       0.00000000       4.23636364       0.00000000       0.00000000       0.02721101
2
Properties=species:S:1:pos:R:3:forces:R:3 energy=-11.081819052381414 pbc="F F F"
P        0.00000000       0.00000000       0.00000000       0.00000000       0.00000000      -0.05842344
P        0.00000000       0.00000000       4.29515152       0.00000000       0.00000000       0.05842344
2
Properties=species:S:1:pos:R:3:forces:R:3 energy=-11.085997049502476 pbc="F F F"
P        0.00000000       0.00000000       0.00000000       0.00000000       0.00000000      -0.08251697
P        0.00000000       0.00000000       4.35393939       0.00000000       0.00000000       0.08251697
2
Properties=species:S:1:pos:R:3:forces:R:3 energy=-11.091377120716409 pbc="F F F"
P        0.00000000       0.00000000       0.00000000       0.00000000       0.00000000      -0.09927353
P        0.00000000       0.00000000       4.41272727       0.00000000       0.00000000       0.09927353
2
Properties=species:S:1:pos:R:3:forces:R:3 energy=-11.0975298003905 pbc="F F F"
P        0.00000000       0.00000000       0.00000000       0.00000000       0.00000000      -0.10891707
P        0.00000000       0.00000000       4.47151515       0.00000000       0.00000000       0.10891707
2
Properties=species:S:1:pos:R:3:forces:R:3 energy=-11.104056184027714 pbc="F F F"
P        0.00000000       0.00000000       0.00000000       0.00000000       0.00000000      -0.11211093
P        0.00000000       0.00000000       4.53030303       0.00000000       0.00000000       0.11211093
2
Properties=species:S:1:pos:R:3:forces:R:3 energy=-11.11060509836417 pbc="F F F"
P        0.00000000       0.00000000       0.00000000       0.00000000       0.00000000      -0.10988031
P        0.00000000       0.00000000       4.58909091       0.00000000       0.00000000       0.10988031
2
Properties=species:S:1:pos:R:3:forces:R:3 energy=-11.116894066364985 pbc="F F F"
P        0.00000000       0.00000000       0.00000000       0.00000000       0.00000000      -0.10351577
P        0.00000000       0.00000000       4.64787879       0.00000000       0.00000000       0.10351577
2
Properties=species:S:1:pos:R:3:forces:R:3 energy=-11.122722640449737 pbc="F F F"
P        0.00000000       0.00000000       0.00000000       0.00000000       0.00000000      -0.09444870
P        0.00000000       0.00000000       4.70666667       0.00000000       0.00000000       0.09444870
2
Properties=species:S:1:pos:R:3:forces:R:3 energy=-11.127974310633046 pbc="F F F"
P        0.00000000       0.00000000       0.00000000       0.00000000       0.00000000      -0.08410079
P        0.00000000       0.00000000       4.76545455       0.00000000       0.00000000       0.08410079
2
Properties=species:S:1:pos:R:3:forces:R:3 energy=-11.132610760699897 pbc="F F F"
P        0.00000000       0.00000000       0.00000000       0.00000000       0.00000000      -0.07371228
P        0.00000000       0.00000000       4.82424242       0.00000000       0.00000000       0.07371228
2
Properties=species:S:1:pos:R:3:forces:R:3 energy=-11.136657564278833 pbc="F F F"
P        0.00000000       0.00000000       0.00000000       0.00000000       0.00000000      -0.06415817
P        0.00000000       0.00000000       4.88303030       0.00000000       0.00000000       0.06415817
2
Properties=species:S:1:pos:R:3:forces:R:3 energy=-11.140178405541095 pbc="F F F"
P        0.00000000       0.00000000       0.00000000       0.00000000       0.00000000      -0.05581146
P        0.00000000       0.00000000       4.94181818       0.00000000       0.00000000       0.05581146
2
Properties=species:S:1:pos:R:3:forces:R:3 energy=-11.143240753260883 pbc="F F F"
P        0.00000000       0.00000000       0.00000000       0.00000000       0.00000000      -0.04853412
P        0.00000000       0.00000000       5.00060606       0.00000000       0.00000000       0.04853412
2
Properties=species:S:1:pos:R:3:forces:R:3 energy=-11.14589582217135 pbc="F F F"
P        0.00000000       0.00000000       0.00000000       0.00000000       0.00000000      -0.04183605
P        0.00000000       0.00000000       5.05939394       0.00000000       0.00000000       0.04183605
2
Properties=species:S:1:pos:R:3:forces:R:3 energy=-11.148161394551602 pbc="F F F"
P        0.00000000       0.00000000       0.00000000       0.00000000       0.00000000      -0.03521182
P        0.00000000       0.00000000       5.11818182       0.00000000       0.00000000       0.03521182
2
Properties=species:S:1:pos:R:3:forces:R:3 energy=-11.150032306288413 pbc="F F F"
P        0.00000000       0.00000000       0.00000000       0.00000000       0.00000000      -0.02843377
P        0.00000000       0.00000000       5.17696970       0.00000000       0.00000000       0.02843377
2
Properties=species:S:1:pos:R:3:forces:R:3 energy=-11.15150238732518 pbc="F F F"
P        0.00000000       0.00000000       0.00000000       0.00000000       0.00000000      -0.02155527
P        0.00000000       0.00000000       5.23575758       0.00000000       0.00000000       0.02155527
2
Properties=species:S:1:pos:R:3:forces:R:3 energy=-11.152562532930483 pbc="F F F"
P        0.00000000       0.00000000       0.00000000       0.00000000       0.00000000      -0.01440646
P        0.00000000       0.00000000       5.29454545       0.00000000       0.00000000       0.01440646
2
Properties=species:S:1:pos:R:3:forces:R:3 energy=-11.153179742662019 pbc="F F F"
P        0.00000000       0.00000000       0.00000000       0.00000000       0.00000000      -0.00647919
P        0.00000000       0.00000000       5.35333333       0.00000000       0.00000000       0.00647919
2
Properties=species:S:1:pos:R:3:forces:R:3 energy=-11.15334002185161 pbc="F F F"
P        0.00000000       0.00000000       0.00000000       0.00000000       0.00000000       0.00037082
P        0.00000000       0.00000000       5.41212121       0.00000000       0.00000000      -0.00037082
2
Properties=species:S:1:pos:R:3:forces:R:3 energy=-11.153309695495507 pbc="F F F"
P        0.00000000       0.00000000       0.00000000       0.00000000       0.00000000      -0.00153934
P        0.00000000       0.00000000       5.47090909       0.00000000       0.00000000       0.00153934
2
Properties=species:S:1:pos:R:3:forces:R:3 energy=-11.153758433033154 pbc="F F F"
P        0.00000000       0.00000000       0.00000000       0.00000000       0.00000000      -0.01472517
P        0.00000000       0.00000000       5.52969697       0.00000000       0.00000000       0.01472517
2
Properties=species:S:1:pos:R:3:forces:R:3 energy=-11.154979152655821 pbc="F F F"
P        0.00000000       0.00000000       0.00000000       0.00000000       0.00000000      -0.02517834
P        0.00000000       0.00000000       5.58848485       0.00000000       0.00000000       0.02517834
2
Properties=species:S:1:pos:R:3:forces:R:3 energy=-11.156545645099403 pbc="F F F"
P        0.00000000       0.00000000       0.00000000       0.00000000       0.00000000      -0.02760380
P        0.00000000       0.00000000       5.64727273       0.00000000       0.00000000       0.02760380
2
Properties=species:S:1:pos:R:3:forces:R:3 energy=-11.158331109099718 pbc="F F F"
P        0.00000000       0.00000000       0.00000000       0.00000000       0.00000000      -0.03535020
P        0.00000000       0.00000000       5.70606061       0.00000000       0.00000000       0.03535020
2
Properties=species:S:1:pos:R:3:forces:R:3 energy=-11.160978320552058 pbc="F F F"
P        0.00000000       0.00000000       0.00000000       0.00000000       0.00000000      -0.05548444
P        0.00000000       0.00000000       5.76484848       0.00000000       0.00000000       0.05548444
2
Properties=species:S:1:pos:R:3:forces:R:3 energy=-11.164627429785167 pbc="F F F"
P        0.00000000       0.00000000       0.00000000       0.00000000       0.00000000      -0.06405612
P        0.00000000       0.00000000       5.82363636       0.00000000       0.00000000       0.06405612
2
Properties=species:S:1:pos:R:3:forces:R:3 energy=-11.16786119994518 pbc="F F F"
P        0.00000000       0.00000000       0.00000000       0.00000000       0.00000000      -0.04219057
P        0.00000000       0.00000000       5.88242424       0.00000000       0.00000000       0.04219057
2
Properties=species:S:1:pos:R:3:forces:R:3 energy=-11.169403518772137 pbc="F F F"
P        0.00000000       0.00000000       0.00000000       0.00000000       0.00000000      -0.01109308
P        0.00000000       0.00000000       5.94121212       0.00000000       0.00000000       0.01109308
2
Properties=species:S:1:pos:R:3:forces:R:3 energy=-11.16953750141909 pbc="F F F"
P        0.00000000       0.00000000       0.00000000       0.00000000       0.00000000       0.00213214
P        0.00000000       0.00000000       6.00000000       0.00000000       0.00000000      -0.00213214
