2
Properties=species:S:1:pos:R:3:forces:R:3 energy=44783139.97015329 pbc="F F F"
Pa       0.00000000       0.00000000       0.00000000       0.00000000       0.00000000 -3203693.25000000
Pa       0.00000000       0.00000000       0.18000000       0.00000000       0.00000000 3203693.25000000
2
Properties=species:S:1:pos:R:3:forces:R:3 energy=44474635.97015329 pbc="F F F"
Pa       0.00000000       0.00000000       0.00000000       0.00000000       0.00000000 -7910025.00000000
Pa       0.00000000       0.00000000       0.23878788       0.00000000       0.00000000 7910025.00000000
2
Properties=species:S:1:pos:R:3:forces:R:3 energy=43768859.97015329 pbc="F F F"
Pa       0.00000000       0.00000000       0.00000000       0.00000000       0.00000000 -16938552.00000000
Pa       0.00000000       0.00000000       0.29757576       0.00000000       0.00000000 16938552.00000000
2
Properties=species:S:1:pos:R:3:forces:R:3 energy=42378055.97015329 pbc="F F F"
Pa       0.00000000       0.00000000       0.00000000       0.00000000       0.00000000 -31304198.00000000
Pa       0.00000000       0.00000000       0.35636364       0.00000000       0.00000000 31304198.00000000
2
Properties=species:S:1:pos:R:3:forces:R:3 energy=39976319.97015329 pbc="F F F"
Pa       0.00000000       0.00000000       0.00000000       0.00000000       0.00000000 -51287392.00000000
Pa       0.00000000       0.00000000       0.41515152       0.00000000       0.00000000 51287392.00000000
2
Properties=species:S:1:pos:R:3:forces:R:3 energy=36263283.970153295 pbc="F F F"
Pa       0.00000000       0.00000000       0.00000000       0.00000000       0.00000000 -75503448.00000000
Pa       0.00000000       0.00000000       0.47393939       0.00000000       0.00000000 75503448.00000000
2
Properties=species:S:1:pos:R:3:forces:R:3 energy=31091141.970153295 pbc="F F F"
Pa       0.00000000       0.00000000       0.00000000       0.00000000       0.00000000 -100043216.00000000
Pa       0.00000000       0.00000000       0.53272727       0.00000000       0.00000000 100043216.00000000
2
Properties=species:S:1:pos:R:3:forces:R:3 energy=24622489.970153295 pbc="F F F"
Pa       0.00000000       0.00000000       0.00000000       0.00000000       0.00000000 -118298600.00000000
Pa       0.00000000       0.00000000       0.59151515       0.00000000       0.00000000 118298600.00000000
2
Properties=species:S:1:pos:R:3:forces:R:3 energy=17458617.9701533 pbc="F F F"
Pa       0.00000000       0.00000000       0.00000000       0.00000000       0.00000000 -122506512.00000000
Pa       0.00000000       0.00000000       0.65030303       0.00000000       0.00000000 122506512.00000000
2
Properties=species:S:1:pos:R:3:forces:R:3 energy=10599739.970153306 pbc="F F F"
Pa       0.00000000       0.00000000       0.00000000       0.00000000       0.00000000 -107554624.00000000
Pa       0.00000000       0.00000000       0.70909091       0.00000000       0.00000000 107554624.00000000
2
Properties=species:S:1:pos:R:3:forces:R:3 energy=5147279.970153315 pbc="F F F"
Pa       0.00000000       0.00000000       0.00000000       0.00000000       0.00000000 -75877488.00000000
Pa       0.00000000       0.00000000       0.76787879       0.00000000       0.00000000 75877488.00000000
2
Properties=species:S:1:pos:R:3:forces:R:3 energy=1779581.2201533278 pbc="F F F"
Pa       0.00000000       0.00000000       0.00000000       0.00000000       0.00000000 -39168084.00000000
Pa       0.00000000       0.00000000       0.82666667       0.00000000       0.00000000 39168084.00000000
2
Properties=species:S:1:pos:R:3:forces:R:3 energy=344521.0014033499 pbc="F F F"
Pa       0.00000000       0.00000000       0.00000000       0.00000000       0.00000000 -12227284.00000000
Pa       0.00000000       0.00000000       0.88545455       0.00000000       0.00000000 12227284.00000000
2
Properties=species:S:1:pos:R:3:forces:R:3 energy=17912.083434631608 pbc="F F F"
Pa       0.00000000       0.00000000       0.00000000       0.00000000       0.00000000 -1317569.75000000
Pa       0.00000000       0.00000000       0.94424242       0.00000000       0.00000000 1317569.75000000
2
Properties=species:S:1:pos:R:3:forces:R:3 energy=-22.15006295317466 pbc="F F F"
Pa       0.00000000       0.00000000       0.00000000       0.00000000       0.00000000  -18346.69921875
Pa       0.00000000       0.00000000       1.00303030       0.00000000       0.00000000   18346.69921875
2
Properties=species:S:1:pos:R:3:forces:R:3 energy=-1555.1459353968803 pbc="F F F"
Pa       0.00000000       0.00000000       0.00000000       0.00000000       0.00000000    7840.42675781
Pa       0.00000000       0.00000000       1.06181818       0.00000000       0.00000000   -7840.42675781
2
Properties=species:S:1:pos:R:3:forces:R:3 energy=-1173.9869997803132 pbc="F F F"
Pa       0.00000000       0.00000000       0.00000000       0.00000000       0.00000000    4639.08496094
Pa       0.00000000       0.00000000       1.12060606       0.00000000       0.00000000   -4639.08496094
2
Properties=species:S:1:pos:R:3:forces:R:3 energy=-928.0590211759892 pbc="F F F"
Pa       0.00000000       0.00000000       0.00000000       0.00000000       0.00000000    3815.98413086
Pa       0.00000000       0.00000000       1.17939394       0.00000000       0.00000000   -3815.98413086
2
Properties=species:S:1:pos:R:3:forces:R:3 energy=-716.9722900985806 pbc="F F F"
Pa       0.00000000       0.00000000       0.00000000       0.00000000       0.00000000    3371.73413086
Pa       0.00000000       0.00000000       1.23818182       0.00000000       0.00000000   -3371.73413086
2
Properties=species:S:1:pos:R:3:forces:R:3 energy=-535.6210326286421 pbc="F F F"
Pa       0.00000000       0.00000000       0.00000000       0.00000000       0.00000000    2755.32958984
Pa       0.00000000       0.00000000       1.29696970       0.00000000       0.00000000   -2755.32958984
2
Properties=species:S:1:pos:R:3:forces:R:3 energy=-396.16345187216655 pbc="F F F"
Pa       0.00000000       0.00000000       0.00000000       0.00000000       0.00000000    1977.51379395
Pa       0.00000000       0.00000000       1.35575758       0.00000000       0.00000000   -1977.51379395
2
Properties=species:S:1:pos:R:3:forces:R:3 energy=-296.5999445576696 pbc="F F F"
Pa       0.00000000       0.00000000       0.00000000       0.00000000       0.00000000    1372.19067383
Pa       0.00000000       0.00000000       1.41454545       0.00000000       0.00000000   -1372.19067383
2
Properties=species:S:1:pos:R:3:forces:R:3 energy=-230.5145255713937 pbc="F F F"
Pa       0.00000000       0.00000000       0.00000000       0.00000000       0.00000000     918.01623535
Pa       0.00000000       0.00000000       1.47333333       0.00000000       0.00000000    -918.01623535
2
Properties=species:S:1:pos:R:3:forces:R:3 energy=-188.49149970390232 pbc="F F F"
Pa       0.00000000       0.00000000       0.00000000       0.00000000       0.00000000     375.08245850
Pa       0.00000000       0.00000000       1.53212121       0.00000000       0.00000000    -375.08245850
2
Properties=species:S:1:pos:R:3:forces:R:3 energy=-175.19474634022316 pbc="F F F"
Pa       0.00000000       0.00000000       0.00000000       0.00000000       0.00000000     205.88034058
Pa       0.00000000       0.00000000       1.59090909       0.00000000       0.00000000    -205.88034058
2
Properties=species:S:1:pos:R:3:forces:R:3 energy=-165.9073160079622 pbc="F F F"
Pa       0.00000000       0.00000000       0.00000000       0.00000000       0.00000000     113.35271454
Pa       0.00000000       0.00000000       1.64969697       0.00000000       0.00000000    -113.35271454
2
Properties=species:S:1:pos:R:3:forces:R:3 energy=-160.30151093737405 pbc="F F F"
Pa       0.00000000       0.00000000       0.00000000       0.00000000       0.00000000      92.04087067
Pa       0.00000000       0.00000000       1.70848485       0.00000000       0.00000000     -92.04087067
2
Properties=species:S:1:pos:R:3:forces:R:3 energy=-154.18796954035395 pbc="F F F"
Pa       0.00000000       0.00000000       0.00000000       0.00000000       0.00000000     113.44494629
Pa       0.00000000       0.00000000       1.76727273       0.00000000       0.00000000    -113.44494629
2
Properties=species:S:1:pos:R:3:forces:R:3 energy=-147.73853627398123 pbc="F F F"
Pa       0.00000000       0.00000000       0.00000000       0.00000000       0.00000000     100.91519928
Pa       0.00000000       0.00000000       1.82606061       0.00000000       0.00000000    -100.91519928
2
Properties=species:S:1:pos:R:3:forces:R:3 energy=-142.9357703360218 pbc="F F F"
Pa       0.00000000       0.00000000       0.00000000       0.00000000       0.00000000      55.03562164
Pa       0.00000000       0.00000000       1.88484848       0.00000000       0.00000000     -55.03562164
2
Properties=species:S:1:pos:R:3:forces:R:3 energy=-141.50515081443834 pbc="F F F"
Pa       0.00000000       0.00000000       0.00000000       0.00000000       0.00000000       0.13845091
Pa       0.00000000       0.00000000       1.94363636       0.00000000       0.00000000      -0.13845091
2
Properties=species:S:1:pos:R:3:forces:R:3 energy=-142.09519148416928 pbc="F F F"
Pa       0.00000000       0.00000000       0.00000000       0.00000000       0.00000000     -16.41520691
Pa       0.00000000       0.00000000       2.00242424       0.00000000       0.00000000      16.41520691
2
Properties=species:S:1:pos:R:3:forces:R:3 energy=-143.25269102592665 pbc="F F F"
Pa       0.00000000       0.00000000       0.00000000       0.00000000       0.00000000     -21.53340530
Pa       0.00000000       0.00000000       2.06121212       0.00000000       0.00000000      21.53340530
2
Properties=species:S:1:pos:R:3:forces:R:3 energy=-144.42230577376696 pbc="F F F"
Pa       0.00000000       0.00000000       0.00000000       0.00000000       0.00000000     -16.99404716
Pa       0.00000000       0.00000000       2.12000000       0.00000000       0.00000000      16.99404716
2
Properties=species:S:1:pos:R:3:forces:R:3 energy=-145.1852582365273 pbc="F F F"
Pa       0.00000000       0.00000000       0.00000000       0.00000000       0.00000000      -8.96755314
Pa       0.00000000       0.00000000       2.17878788       0.00000000       0.00000000       8.96755314
2
Properties=species:S:1:pos:R:3:forces:R:3 energy=-145.52024709715909 pbc="F F F"
Pa       0.00000000       0.00000000       0.00000000       0.00000000       0.00000000      -3.03530765
Pa       0.00000000       0.00000000       2.23757576       0.00000000       0.00000000       3.03530765
2
Properties=species:S:1:pos:R:3:forces:R:3 energy=-145.61466550612502 pbc="F F F"
Pa       0.00000000       0.00000000       0.00000000       0.00000000       0.00000000      -0.65881330
Pa       0.00000000       0.00000000       2.29636364       0.00000000       0.00000000       0.65881330
2
Properties=species:S:1:pos:R:3:forces:R:3 energy=-145.62584679309902 pbc="F F F"
Pa       0.00000000       0.00000000       0.00000000       0.00000000       0.00000000       0.26075491
Pa       0.00000000       0.00000000       2.35515152       0.00000000       0.00000000      -0.26075491
2
Properties=species:S:1:pos:R:3:forces:R:3 energy=-145.57225403582592 pbc="F F F"
Pa       0.00000000       0.00000000       0.00000000       0.00000000       0.00000000       1.70444524
Pa       0.00000000       0.00000000       2.41393939       0.00000000       0.00000000      -1.70444524
2
Properties=species:S:1:pos:R:3:forces:R:3 energy=-145.41357347558872 pbc="F F F"
Pa       0.00000000       0.00000000       0.00000000       0.00000000       0.00000000       3.72353411
Pa       0.00000000       0.00000000       2.47272727       0.00000000       0.00000000      -3.72353411
2
Properties=species:S:1:pos:R:3:forces:R:3 energy=-145.14145849141383 pbc="F F F"
Pa       0.00000000       0.00000000       0.00000000       0.00000000       0.00000000       5.38936758
Pa       0.00000000       0.00000000       2.53151515       0.00000000       0.00000000      -5.38936758
2
Properties=species:S:1:pos:R:3:forces:R:3 energy=-144.80421833978096 pbc="F F F"
Pa       0.00000000       0.00000000       0.00000000       0.00000000       0.00000000       5.83772707
Pa       0.00000000       0.00000000       2.59030303       0.00000000       0.00000000      -5.83772707
2
Properties=species:S:1:pos:R:3:forces:R:3 energy=-144.48406730963467 pbc="F F F"
Pa       0.00000000       0.00000000       0.00000000       0.00000000       0.00000000       4.83358431
Pa       0.00000000       0.00000000       2.64909091       0.00000000       0.00000000      -4.83358431
2
Properties=species:S:1:pos:R:3:forces:R:3 energy=-144.25452217381815 pbc="F F F"
Pa       0.00000000       0.00000000       0.00000000       0.00000000       0.00000000       2.89598250
Pa       0.00000000       0.00000000       2.70787879       0.00000000       0.00000000      -2.89598250
2
Properties=species:S:1:pos:R:3:forces:R:3 energy=-144.14288083310427 pbc="F F F"
Pa       0.00000000       0.00000000       0.00000000       0.00000000       0.00000000       0.98487240
Pa       0.00000000       0.00000000       2.76666667       0.00000000       0.00000000      -0.98487240
2
Properties=species:S:1:pos:R:3:forces:R:3 energy=-144.12367626400965 pbc="F F F"
Pa       0.00000000       0.00000000       0.00000000       0.00000000       0.00000000      -0.18571907
Pa       0.00000000       0.00000000       2.82545455       0.00000000       0.00000000       0.18571907
2
Properties=species:S:1:pos:R:3:forces:R:3 energy=-144.14940779282622 pbc="F F F"
Pa       0.00000000       0.00000000       0.00000000       0.00000000       0.00000000      -0.58670211
Pa       0.00000000       0.00000000       2.88424242       0.00000000       0.00000000       0.58670211
2
Properties=species:S:1:pos:R:3:forces:R:3 energy=-144.18386618956364 pbc="F F F"
Pa       0.00000000       0.00000000       0.00000000       0.00000000       0.00000000      -0.53374714
Pa       0.00000000       0.00000000       2.94303030       0.00000000       0.00000000       0.53374714
2
Properties=species:S:1:pos:R:3:forces:R:3 energy=-144.20755063310102 pbc="F F F"
Pa       0.00000000       0.00000000       0.00000000       0.00000000       0.00000000      -0.23973365
Pa       0.00000000       0.00000000       3.00181818       0.00000000       0.00000000       0.23973365
2
Properties=species:S:1:pos:R:3:forces:R:3 energy=-144.20831501013518 pbc="F F F"
Pa       0.00000000       0.00000000       0.00000000       0.00000000       0.00000000       0.24857178
Pa       0.00000000       0.00000000       3.06060606       0.00000000       0.00000000      -0.24857178
2
Properties=species:S:1:pos:R:3:forces:R:3 energy=-144.17350966098826 pbc="F F F"
Pa       0.00000000       0.00000000       0.00000000       0.00000000       0.00000000       0.98102766
Pa       0.00000000       0.00000000       3.11939394       0.00000000       0.00000000      -0.98102766
2
Properties=species:S:1:pos:R:3:forces:R:3 energy=-144.0878909286739 pbc="F F F"
Pa       0.00000000       0.00000000       0.00000000       0.00000000       0.00000000       1.96554089
Pa       0.00000000       0.00000000       3.17818182       0.00000000       0.00000000      -1.96554089
2
Properties=species:S:1:pos:R:3:forces:R:3 energy=-143.94082330416703 pbc="F F F"
Pa       0.00000000       0.00000000       0.00000000       0.00000000       0.00000000       3.02663279
Pa       0.00000000       0.00000000       3.23696970       0.00000000       0.00000000      -3.02663279
2
Properties=species:S:1:pos:R:3:forces:R:3 energy=-143.7364265052912 pbc="F F F"
Pa       0.00000000       0.00000000       0.00000000       0.00000000       0.00000000       3.86800385
Pa       0.00000000       0.00000000       3.29575758       0.00000000       0.00000000      -3.86800385
2
Properties=species:S:1:pos:R:3:forces:R:3 energy=-143.4942621380657 pbc="F F F"
Pa       0.00000000       0.00000000       0.00000000       0.00000000       0.00000000       4.29695082
Pa       0.00000000       0.00000000       3.35454545       0.00000000       0.00000000      -4.29695082
2
Properties=species:S:1:pos:R:3:forces:R:3 energy=-143.23921711005335 pbc="F F F"
Pa       0.00000000       0.00000000       0.00000000       0.00000000       0.00000000       4.32037449
Pa       0.00000000       0.00000000       3.41333333       0.00000000       0.00000000      -4.32037449
2
Properties=species:S:1:pos:R:3:forces:R:3 energy=-142.9921957658648 pbc="F F F"
Pa       0.00000000       0.00000000       0.00000000       0.00000000       0.00000000       4.04244280
Pa       0.00000000       0.00000000       3.47212121       0.00000000       0.00000000      -4.04244280
2
Properties=species:S:1:pos:R:3:forces:R:3 energy=-142.76773952240038 pbc="F F F"
Pa       0.00000000       0.00000000       0.00000000       0.00000000       0.00000000       3.57007885
Pa       0.00000000       0.00000000       3.53090909       0.00000000       0.00000000      -3.57007885
2
Properties=species:S:1:pos:R:3:forces:R:3 energy=-142.57413374372993 pbc="F F F"
Pa       0.00000000       0.00000000       0.00000000       0.00000000       0.00000000       3.01137304
Pa       0.00000000       0.00000000       3.58969697       0.00000000       0.00000000      -3.01137304
2
Properties=species:S:1:pos:R:3:forces:R:3 energy=-142.413087154467 pbc="F F F"
Pa       0.00000000       0.00000000       0.00000000       0.00000000       0.00000000       2.48174357
Pa       0.00000000       0.00000000       3.64848485       0.00000000       0.00000000      -2.48174357
2
Properties=species:S:1:pos:R:3:forces:R:3 energy=-142.27999140390975 pbc="F F F"
Pa       0.00000000       0.00000000       0.00000000       0.00000000       0.00000000       2.07064724
Pa       0.00000000       0.00000000       3.70727273       0.00000000       0.00000000      -2.07064724
2
Properties=species:S:1:pos:R:3:forces:R:3 energy=-142.16668282766568 pbc="F F F"
Pa       0.00000000       0.00000000       0.00000000       0.00000000       0.00000000       1.80747044
Pa       0.00000000       0.00000000       3.76606061       0.00000000       0.00000000      -1.80747044
2
Properties=species:S:1:pos:R:3:forces:R:3 energy=-142.06505875848464 pbc="F F F"
Pa       0.00000000       0.00000000       0.00000000       0.00000000       0.00000000       1.66621172
Pa       0.00000000       0.00000000       3.82484848       0.00000000       0.00000000      -1.66621172
2
Properties=species:S:1:pos:R:3:forces:R:3 energy=-141.96932061260057 pbc="F F F"
Pa       0.00000000       0.00000000       0.00000000       0.00000000       0.00000000       1.59940028
Pa       0.00000000       0.00000000       3.88363636       0.00000000       0.00000000      -1.59940028
2
Properties=species:S:1:pos:R:3:forces:R:3 energy=-141.8763705992402 pbc="F F F"
Pa       0.00000000       0.00000000       0.00000000       0.00000000       0.00000000       1.56588423
Pa       0.00000000       0.00000000       3.94242424       0.00000000       0.00000000      -1.56588423
2
Properties=species:S:1:pos:R:3:forces:R:3 energy=-141.78514032123297 pbc="F F F"
Pa       0.00000000       0.00000000       0.00000000       0.00000000       0.00000000       1.53647757
Pa       0.00000000       0.00000000       4.00121212       0.00000000       0.00000000      -1.53647757
2
Properties=species:S:1:pos:R:3:forces:R:3 energy=-141.69602622515833 pbc="F F F"
Pa       0.00000000       0.00000000       0.00000000       0.00000000       0.00000000       1.49157763
Pa       0.00000000       0.00000000       4.06000000       0.00000000       0.00000000      -1.49157763
2
Properties=species:S:1:pos:R:3:forces:R:3 energy=-141.61023346074478 pbc="F F F"
Pa       0.00000000       0.00000000       0.00000000       0.00000000       0.00000000       1.42345989
Pa       0.00000000       0.00000000       4.11878788       0.00000000       0.00000000      -1.42345989
2
Properties=species:S:1:pos:R:3:forces:R:3 energy=-141.5289976794598 pbc="F F F"
Pa       0.00000000       0.00000000       0.00000000       0.00000000       0.00000000       1.33848464
Pa       0.00000000       0.00000000       4.17757576       0.00000000       0.00000000      -1.33848464
2
Properties=species:S:1:pos:R:3:forces:R:3 energy=-141.45288314921993 pbc="F F F"
Pa       0.00000000       0.00000000       0.00000000       0.00000000       0.00000000       1.25226355
Pa       0.00000000       0.00000000       4.23636364       0.00000000       0.00000000      -1.25226355
2
Properties=species:S:1:pos:R:3:forces:R:3 energy=-141.38147755009922 pbc="F F F"
Pa       0.00000000       0.00000000       0.00000000       0.00000000       0.00000000       1.18057919
Pa       0.00000000       0.00000000       4.29515152       0.00000000       0.00000000      -1.18057919
2
Properties=species:S:1:pos:R:3:forces:R:3 energy=-141.3136056290541 pbc="F F F"
Pa       0.00000000       0.00000000       0.00000000       0.00000000       0.00000000       1.13295126
Pa       0.00000000       0.00000000       4.35393939       0.00000000       0.00000000      -1.13295126
2
Properties=species:S:1:pos:R:3:forces:R:3 energy=-141.2477564301783 pbc="F F F"
Pa       0.00000000       0.00000000       0.00000000       0.00000000       0.00000000       1.11136532
Pa       0.00000000       0.00000000       4.41272727       0.00000000       0.00000000      -1.11136532
2
Properties=species:S:1:pos:R:3:forces:R:3 energy=-141.18248001371475 pbc="F F F"
Pa       0.00000000       0.00000000       0.00000000       0.00000000       0.00000000       1.11251247
Pa       0.00000000       0.00000000       4.47151515       0.00000000       0.00000000      -1.11251247
2
Properties=species:S:1:pos:R:3:forces:R:3 energy=-141.11661637273778 pbc="F F F"
Pa       0.00000000       0.00000000       0.00000000       0.00000000       0.00000000       1.13058364
Pa       0.00000000       0.00000000       4.53030303       0.00000000       0.00000000      -1.13058364
2
Properties=species:S:1:pos:R:3:forces:R:3 energy=-141.04935643346312 pbc="F F F"
Pa       0.00000000       0.00000000       0.00000000       0.00000000       0.00000000       1.15881753
Pa       0.00000000       0.00000000       4.58909091       0.00000000       0.00000000      -1.15881753
2
Properties=species:S:1:pos:R:3:forces:R:3 energy=-140.98031837136818 pbc="F F F"
Pa       0.00000000       0.00000000       0.00000000       0.00000000       0.00000000       1.18960750
Pa       0.00000000       0.00000000       4.64787879       0.00000000       0.00000000      -1.18960750
2
Properties=species:S:1:pos:R:3:forces:R:3 energy=-140.90960864951592 pbc="F F F"
Pa       0.00000000       0.00000000       0.00000000       0.00000000       0.00000000       1.21388984
Pa       0.00000000       0.00000000       4.70666667       0.00000000       0.00000000      -1.21388984
2
Properties=species:S:1:pos:R:3:forces:R:3 energy=-140.83792882057497 pbc="F F F"
Pa       0.00000000       0.00000000       0.00000000       0.00000000       0.00000000       1.22123325
Pa       0.00000000       0.00000000       4.76545455       0.00000000       0.00000000      -1.22123325
2
Properties=species:S:1:pos:R:3:forces:R:3 energy=-140.76656027119836 pbc="F F F"
Pa       0.00000000       0.00000000       0.00000000       0.00000000       0.00000000       1.20135319
Pa       0.00000000       0.00000000       4.82424242       0.00000000       0.00000000      -1.20135319
2
Properties=species:S:1:pos:R:3:forces:R:3 energy=-140.69736424419813 pbc="F F F"
Pa       0.00000000       0.00000000       0.00000000       0.00000000       0.00000000       1.14698637
Pa       0.00000000       0.00000000       4.88303030       0.00000000       0.00000000      -1.14698637
2
Properties=species:S:1:pos:R:3:forces:R:3 energy=-140.63241560226552 pbc="F F F"
Pa       0.00000000       0.00000000       0.00000000       0.00000000       0.00000000       1.05672872
Pa       0.00000000       0.00000000       4.94181818       0.00000000       0.00000000      -1.05672872
2
Properties=species:S:1:pos:R:3:forces:R:3 energy=-140.57369767119644 pbc="F F F"
Pa       0.00000000       0.00000000       0.00000000       0.00000000       0.00000000       0.93664527
Pa       0.00000000       0.00000000       5.00060606       0.00000000       0.00000000      -0.93664527
2
Properties=species:S:1:pos:R:3:forces:R:3 energy=-140.52261396180933 pbc="F F F"
Pa       0.00000000       0.00000000       0.00000000       0.00000000       0.00000000       0.79951131
Pa       0.00000000       0.00000000       5.05939394       0.00000000       0.00000000      -0.79951131
2
Properties=species:S:1:pos:R:3:forces:R:3 energy=-140.47969825928865 pbc="F F F"
Pa       0.00000000       0.00000000       0.00000000       0.00000000       0.00000000       0.66171050
Pa       0.00000000       0.00000000       5.11818182       0.00000000       0.00000000      -0.66171050
2
Properties=species:S:1:pos:R:3:forces:R:3 energy=-140.44452305461147 pbc="F F F"
Pa       0.00000000       0.00000000       0.00000000       0.00000000       0.00000000       0.53868431
Pa       0.00000000       0.00000000       5.17696970       0.00000000       0.00000000      -0.53868431
2
Properties=species:S:1:pos:R:3:forces:R:3 energy=-140.41588267377472 pbc="F F F"
Pa       0.00000000       0.00000000       0.00000000       0.00000000       0.00000000       0.44010258
Pa       0.00000000       0.00000000       5.23575758       0.00000000       0.00000000      -0.44010258
2
Properties=species:S:1:pos:R:3:forces:R:3 energy=-140.3922815542936 pbc="F F F"
Pa       0.00000000       0.00000000       0.00000000       0.00000000       0.00000000       0.36700612
Pa       0.00000000       0.00000000       5.29454545       0.00000000       0.00000000      -0.36700612
2
Properties=species:S:1:pos:R:3:forces:R:3 energy=-140.37233099114005 pbc="F F F"
Pa       0.00000000       0.00000000       0.00000000       0.00000000       0.00000000       0.31454587
Pa       0.00000000       0.00000000       5.35333333       0.00000000       0.00000000      -0.31454587
2
Properties=species:S:1:pos:R:3:forces:R:3 energy=-140.354886440502 pbc="F F F"
Pa       0.00000000       0.00000000       0.00000000       0.00000000       0.00000000       0.28349549
Pa       0.00000000       0.00000000       5.41212121       0.00000000       0.00000000      -0.28349549
2
Properties=species:S:1:pos:R:3:forces:R:3 energy=-140.33840668073688 pbc="F F F"
Pa       0.00000000       0.00000000       0.00000000       0.00000000       0.00000000       0.28190711
Pa       0.00000000       0.00000000       5.47090909       0.00000000       0.00000000      -0.28190711
2
Properties=species:S:1:pos:R:3:forces:R:3 energy=-140.32151838439907 pbc="F F F"
Pa       0.00000000       0.00000000       0.00000000       0.00000000       0.00000000       0.29062629
Pa       0.00000000       0.00000000       5.52969697       0.00000000       0.00000000      -0.29062629
2
Properties=species:S:1:pos:R:3:forces:R:3 energy=-140.30483190305108 pbc="F F F"
Pa       0.00000000       0.00000000       0.00000000       0.00000000       0.00000000       0.27118483
Pa       0.00000000       0.00000000       5.58848485       0.00000000       0.00000000      -0.27118483
2
Properties=species:S:1:pos:R:3:forces:R:3 energy=-140.29007155113297 pbc="F F F"
Pa       0.00000000       0.00000000       0.00000000       0.00000000       0.00000000       0.23048256
Pa       0.00000000       0.00000000       5.64727273       0.00000000       0.00000000      -0.23048256
2
Properties=species:S:1:pos:R:3:forces:R:3 energy=-140.27732898908508 pbc="F F F"
Pa       0.00000000       0.00000000       0.00000000       0.00000000       0.00000000       0.20933962
Pa       0.00000000       0.00000000       5.70606061       0.00000000       0.00000000      -0.20933962
2
Properties=species:S:1:pos:R:3:forces:R:3 energy=-140.26486488601665 pbc="F F F"
Pa       0.00000000       0.00000000       0.00000000       0.00000000       0.00000000       0.21392721
Pa       0.00000000       0.00000000       5.76484848       0.00000000       0.00000000      -0.21392721
2
Properties=species:S:1:pos:R:3:forces:R:3 energy=-140.25284732619406 pbc="F F F"
Pa       0.00000000       0.00000000       0.00000000       0.00000000       0.00000000       0.18585655
Pa       0.00000000       0.00000000       5.82363636       0.00000000       0.00000000      -0.18585655
2
Properties=species:S:1:pos:R:3:forces:R:3 energy=-140.24405369749846 pbc="F F F"
Pa       0.00000000       0.00000000       0.00000000       0.00000000       0.00000000       0.10925746
Pa       0.00000000       0.00000000       5.88242424       0.00000000       0.00000000      -0.10925746
2
Properties=species:S:1:pos:R:3:forces:R:3 energy=-140.23993393493518 pbc="F F F"
Pa       0.00000000       0.00000000       0.00000000       0.00000000       0.00000000       0.03527637
Pa       0.00000000       0.00000000       5.94121212       0.00000000       0.00000000      -0.03527637
2
Properties=species:S:1:pos:R:3:forces:R:3 energy=-140.23899309374468 pbc="F F F"
Pa       0.00000000       0.00000000       0.00000000       0.00000000       0.00000000       0.00648426
Pa       0.00000000       0.00000000       6.00000000       0.00000000       0.00000000      -0.00648426
