2
Properties=species:S:1:pos:R:3:forces:R:3 energy=44783355.97015329 pbc="F F F"
Pa       0.00000000       0.00000000       0.00000000       0.00000000       0.00000000 -3203711.00000000
Pa       0.00000000       0.00000000       0.18000000       0.00000000       0.00000000 3203711.00000000
2
Properties=species:S:1:pos:R:3:forces:R:3 energy=44474927.97015329 pbc="F F F"
Pa       0.00000000       0.00000000       0.00000000       0.00000000       0.00000000 -7910075.00000000
Pa       0.00000000       0.00000000       0.23878788       0.00000000       0.00000000 7910075.00000000
2
Properties=species:S:1:pos:R:3:forces:R:3 energy=43769007.97015329 pbc="F F F"
Pa       0.00000000       0.00000000       0.00000000       0.00000000       0.00000000 -16938594.00000000
Pa       0.00000000       0.00000000       0.29757576       0.00000000       0.00000000 16938594.00000000
2
Properties=species:S:1:pos:R:3:forces:R:3 energy=42378235.97015329 pbc="F F F"
Pa       0.00000000       0.00000000       0.00000000       0.00000000       0.00000000 -31304328.00000000
Pa       0.00000000       0.00000000       0.35636364       0.00000000       0.00000000 31304328.00000000
2
Properties=species:S:1:pos:R:3:forces:R:3 energy=39976471.97015329 pbc="F F F"
Pa       0.00000000       0.00000000       0.00000000       0.00000000       0.00000000 -51287492.00000000
Pa       0.00000000       0.00000000       0.41515152       0.00000000       0.00000000 51287492.00000000
2
Properties=species:S:1:pos:R:3:forces:R:3 energy=36263619.970153295 pbc="F F F"
Pa       0.00000000       0.00000000       0.00000000       0.00000000       0.00000000 -75504112.00000000
Pa       0.00000000       0.00000000       0.47393939       0.00000000       0.00000000 75504112.00000000
2
Properties=species:S:1:pos:R:3:forces:R:3 energy=31091161.970153295 pbc="F F F"
Pa       0.00000000       0.00000000       0.00000000       0.00000000       0.00000000 -100043176.00000000
Pa       0.00000000       0.00000000       0.53272727       0.00000000       0.00000000 100043176.00000000
2
Properties=species:S:1:pos:R:3:forces:R:3 energy=24622787.970153295 pbc="F F F"
Pa       0.00000000       0.00000000       0.00000000       0.00000000       0.00000000 -118300136.00000000
Pa       0.00000000       0.00000000       0.59151515       0.00000000       0.00000000 118300136.00000000
2
Properties=species:S:1:pos:R:3:forces:R:3 energy=17458623.9701533 pbc="F F F"
Pa       0.00000000       0.00000000       0.00000000       0.00000000       0.00000000 -122506592.00000000
Pa       0.00000000       0.00000000       0.65030303       0.00000000       0.00000000 122506592.00000000
2
Properties=species:S:1:pos:R:3:forces:R:3 energy=10599772.970153306 pbc="F F F"
Pa       0.00000000       0.00000000       0.00000000       0.00000000       0.00000000 -107554976.00000000
Pa       0.00000000       0.00000000       0.70909091       0.00000000       0.00000000 107554976.00000000
2
Properties=species:S:1:pos:R:3:forces:R:3 energy=5147273.470153315 pbc="F F F"
Pa       0.00000000       0.00000000       0.00000000       0.00000000       0.00000000 -75877464.00000000
Pa       0.00000000       0.00000000       0.76787879       0.00000000       0.00000000 75877464.00000000
2
Properties=species:S:1:pos:R:3:forces:R:3 energy=1779579.0951533278 pbc="F F F"
Pa       0.00000000       0.00000000       0.00000000       0.00000000       0.00000000 -39168028.00000000
Pa       0.00000000       0.00000000       0.82666667       0.00000000       0.00000000 39168028.00000000
2
Properties=species:S:1:pos:R:3:forces:R:3 energy=344521.1889033499 pbc="F F F"
Pa       0.00000000       0.00000000       0.00000000       0.00000000       0.00000000 -12227292.00000000
Pa       0.00000000       0.00000000       0.88545455       0.00000000       0.00000000 12227292.00000000
2
Properties=species:S:1:pos:R:3:forces:R:3 energy=17912.196715881608 pbc="F F F"
Pa       0.00000000       0.00000000       0.00000000       0.00000000       0.00000000 -1317575.75000000
Pa       0.00000000       0.00000000       0.94424242       0.00000000       0.00000000 1317575.75000000
2
Properties=species:S:1:pos:R:3:forces:R:3 energy=-22.150200282276224 pbc="F F F"
Pa       0.00000000       0.00000000       0.00000000       0.00000000       0.00000000  -18346.63281250
Pa       0.00000000       0.00000000       1.00303030       0.00000000       0.00000000   18346.63281250
2
Properties=species:S:1:pos:R:3:forces:R:3 energy=-1555.1480105921928 pbc="F F F"
Pa       0.00000000       0.00000000       0.00000000       0.00000000       0.00000000    7840.55517578
Pa       0.00000000       0.00000000       1.06181818       0.00000000       0.00000000   -7840.55517578
2
Properties=species:S:1:pos:R:3:forces:R:3 energy=-1173.9874880615632 pbc="F F F"
Pa       0.00000000       0.00000000       0.00000000       0.00000000       0.00000000    4639.08544922
Pa       0.00000000       0.00000000       1.12060606       0.00000000       0.00000000   -4639.08544922
2
Properties=species:S:1:pos:R:3:forces:R:3 energy=-928.0594484220829 pbc="F F F"
Pa       0.00000000       0.00000000       0.00000000       0.00000000       0.00000000    3815.98754883
Pa       0.00000000       0.00000000       1.17939394       0.00000000       0.00000000   -3815.98754883
2
Properties=species:S:1:pos:R:3:forces:R:3 energy=-716.9709473251431 pbc="F F F"
Pa       0.00000000       0.00000000       0.00000000       0.00000000       0.00000000    3371.72607422
Pa       0.00000000       0.00000000       1.23818182       0.00000000       0.00000000   -3371.72607422
2
Properties=species:S:1:pos:R:3:forces:R:3 energy=-535.6217650505171 pbc="F F F"
Pa       0.00000000       0.00000000       0.00000000       0.00000000       0.00000000    2755.33374023
Pa       0.00000000       0.00000000       1.29696970       0.00000000       0.00000000   -2755.33374023
2
Properties=species:S:1:pos:R:3:forces:R:3 energy=-396.1629025557603 pbc="F F F"
Pa       0.00000000       0.00000000       0.00000000       0.00000000       0.00000000    1977.51000977
Pa       0.00000000       0.00000000       1.35575758       0.00000000       0.00000000   -1977.51000977
2
Properties=species:S:1:pos:R:3:forces:R:3 energy=-296.5997309346227 pbc="F F F"
Pa       0.00000000       0.00000000       0.00000000       0.00000000       0.00000000    1372.18762207
Pa       0.00000000       0.00000000       1.41454545       0.00000000       0.00000000   -1372.18762207
2
Properties=species:S:1:pos:R:3:forces:R:3 energy=-230.51484600596402 pbc="F F F"
Pa       0.00000000       0.00000000       0.00000000       0.00000000       0.00000000     918.01837158
Pa       0.00000000       0.00000000       1.47333333       0.00000000       0.00000000    -918.01837158
2
Properties=species:S:1:pos:R:3:forces:R:3 energy=-188.49148444511326 pbc="F F F"
Pa       0.00000000       0.00000000       0.00000000       0.00000000       0.00000000     375.07803345
Pa       0.00000000       0.00000000       1.53212121       0.00000000       0.00000000    -375.07803345
2
Properties=species:S:1:pos:R:3:forces:R:3 energy=-175.19479211659035 pbc="F F F"
Pa       0.00000000       0.00000000       0.00000000       0.00000000       0.00000000     205.88095093
Pa       0.00000000       0.00000000       1.59090909       0.00000000       0.00000000    -205.88095093
2
Properties=species:S:1:pos:R:3:forces:R:3 energy=-165.9073160079622 pbc="F F F"
Pa       0.00000000       0.00000000       0.00000000       0.00000000       0.00000000     113.35225677
Pa       0.00000000       0.00000000       1.64969697       0.00000000       0.00000000    -113.35225677
2
Properties=species:S:1:pos:R:3:forces:R:3 energy=-160.30151093737405 pbc="F F F"
Pa       0.00000000       0.00000000       0.00000000       0.00000000       0.00000000      92.04086304
Pa       0.00000000       0.00000000       1.70848485       0.00000000       0.00000000     -92.04086304
2
Properties=species:S:1:pos:R:3:forces:R:3 energy=-154.18796954035395 pbc="F F F"
Pa       0.00000000       0.00000000       0.00000000       0.00000000       0.00000000     113.44503021
Pa       0.00000000       0.00000000       1.76727273       0.00000000       0.00000000    -113.44503021
2
Properties=species:S:1:pos:R:3:forces:R:3 energy=-147.7385515327703 pbc="F F F"
Pa       0.00000000       0.00000000       0.00000000       0.00000000       0.00000000     100.91547394
Pa       0.00000000       0.00000000       1.82606061       0.00000000       0.00000000    -100.91547394
2
Properties=species:S:1:pos:R:3:forces:R:3 energy=-142.93578559481085 pbc="F F F"
Pa       0.00000000       0.00000000       0.00000000       0.00000000       0.00000000      55.03580856
Pa       0.00000000       0.00000000       1.88484848       0.00000000       0.00000000     -55.03580856
2
Properties=species:S:1:pos:R:3:forces:R:3 energy=-141.5051202968602 pbc="F F F"
Pa       0.00000000       0.00000000       0.00000000       0.00000000       0.00000000       0.13840751
Pa       0.00000000       0.00000000       1.94363636       0.00000000       0.00000000      -0.13840751
2
Properties=species:S:1:pos:R:3:forces:R:3 energy=-142.09519148416928 pbc="F F F"
Pa       0.00000000       0.00000000       0.00000000       0.00000000       0.00000000     -16.41516685
Pa       0.00000000       0.00000000       2.00242424       0.00000000       0.00000000      16.41516685
2
Properties=species:S:1:pos:R:3:forces:R:3 energy=-143.25269102592665 pbc="F F F"
Pa       0.00000000       0.00000000       0.00000000       0.00000000       0.00000000     -21.53341103
Pa       0.00000000       0.00000000       2.06121212       0.00000000       0.00000000      21.53341103
2
Properties=species:S:1:pos:R:3:forces:R:3 energy=-144.42230577376696 pbc="F F F"
Pa       0.00000000       0.00000000       0.00000000       0.00000000       0.00000000     -16.99403763
Pa       0.00000000       0.00000000       2.12000000       0.00000000       0.00000000      16.99403763
2
Properties=species:S:1:pos:R:3:forces:R:3 energy=-145.1852582365273 pbc="F F F"
Pa       0.00000000       0.00000000       0.00000000       0.00000000       0.00000000      -8.96754742
Pa       0.00000000       0.00000000       2.17878788       0.00000000       0.00000000       8.96754742
2
Properties=species:S:1:pos:R:3:forces:R:3 energy=-145.52024709715909 pbc="F F F"
Pa       0.00000000       0.00000000       0.00000000       0.00000000       0.00000000      -3.03531265
Pa       0.00000000       0.00000000       2.23757576       0.00000000       0.00000000       3.03531265
2
Properties=species:S:1:pos:R:3:forces:R:3 energy=-145.61466550612502 pbc="F F F"
Pa       0.00000000       0.00000000       0.00000000       0.00000000       0.00000000      -0.65882474
Pa       0.00000000       0.00000000       2.29636364       0.00000000       0.00000000       0.65882474
2
Properties=species:S:1:pos:R:3:forces:R:3 energy=-145.62584679309902 pbc="F F F"
Pa       0.00000000       0.00000000       0.00000000       0.00000000       0.00000000       0.26075366
Pa       0.00000000       0.00000000       2.35515152       0.00000000       0.00000000      -0.26075366
2
Properties=species:S:1:pos:R:3:forces:R:3 energy=-145.57225403582592 pbc="F F F"
Pa       0.00000000       0.00000000       0.00000000       0.00000000       0.00000000       1.70444834
Pa       0.00000000       0.00000000       2.41393939       0.00000000       0.00000000      -1.70444834
2
Properties=species:S:1:pos:R:3:forces:R:3 energy=-145.41357347558872 pbc="F F F"
Pa       0.00000000       0.00000000       0.00000000       0.00000000       0.00000000       3.72353935
Pa       0.00000000       0.00000000       2.47272727       0.00000000       0.00000000      -3.72353935
2
Properties=species:S:1:pos:R:3:forces:R:3 energy=-145.14145849141383 pbc="F F F"
Pa       0.00000000       0.00000000       0.00000000       0.00000000       0.00000000       5.38937187
Pa       0.00000000       0.00000000       2.53151515       0.00000000       0.00000000      -5.38937187
2
Properties=species:S:1:pos:R:3:forces:R:3 energy=-144.8042030809919 pbc="F F F"
Pa       0.00000000       0.00000000       0.00000000       0.00000000       0.00000000       5.83772993
Pa       0.00000000       0.00000000       2.59030303       0.00000000       0.00000000      -5.83772993
2
Properties=species:S:1:pos:R:3:forces:R:3 energy=-144.48406730963467 pbc="F F F"
Pa       0.00000000       0.00000000       0.00000000       0.00000000       0.00000000       4.83358431
Pa       0.00000000       0.00000000       2.64909091       0.00000000       0.00000000      -4.83358431
2
Properties=species:S:1:pos:R:3:forces:R:3 energy=-144.25452217381815 pbc="F F F"
Pa       0.00000000       0.00000000       0.00000000       0.00000000       0.00000000       2.89597535
Pa       0.00000000       0.00000000       2.70787879       0.00000000       0.00000000      -2.89597535
2
Properties=species:S:1:pos:R:3:forces:R:3 energy=-144.14288083310427 pbc="F F F"
Pa       0.00000000       0.00000000       0.00000000       0.00000000       0.00000000       0.98487329
Pa       0.00000000       0.00000000       2.76666667       0.00000000       0.00000000      -0.98487329
2
Properties=species:S:1:pos:R:3:forces:R:3 energy=-144.12367626400965 pbc="F F F"
Pa       0.00000000       0.00000000       0.00000000       0.00000000       0.00000000      -0.18571877
Pa       0.00000000       0.00000000       2.82545455       0.00000000       0.00000000       0.18571877
2
Properties=species:S:1:pos:R:3:forces:R:3 energy=-144.14940779282622 pbc="F F F"
Pa       0.00000000       0.00000000       0.00000000       0.00000000       0.00000000      -0.58669919
Pa       0.00000000       0.00000000       2.88424242       0.00000000       0.00000000       0.58669919
2
Properties=species:S:1:pos:R:3:forces:R:3 energy=-144.18386618956364 pbc="F F F"
Pa       0.00000000       0.00000000       0.00000000       0.00000000       0.00000000      -0.53375059
Pa       0.00000000       0.00000000       2.94303030       0.00000000       0.00000000       0.53375059
2
Properties=species:S:1:pos:R:3:forces:R:3 energy=-144.20755063310102 pbc="F F F"
Pa       0.00000000       0.00000000       0.00000000       0.00000000       0.00000000      -0.23973228
Pa       0.00000000       0.00000000       3.00181818       0.00000000       0.00000000       0.23973228
2
Properties=species:S:1:pos:R:3:forces:R:3 energy=-144.20831501013518 pbc="F F F"
Pa       0.00000000       0.00000000       0.00000000       0.00000000       0.00000000       0.24856871
Pa       0.00000000       0.00000000       3.06060606       0.00000000       0.00000000      -0.24856871
2
Properties=species:S:1:pos:R:3:forces:R:3 energy=-144.17350966098826 pbc="F F F"
Pa       0.00000000       0.00000000       0.00000000       0.00000000       0.00000000       0.98102474
Pa       0.00000000       0.00000000       3.11939394       0.00000000       0.00000000      -0.98102474
2
Properties=species:S:1:pos:R:3:forces:R:3 energy=-144.0878909286739 pbc="F F F"
Pa       0.00000000       0.00000000       0.00000000       0.00000000       0.00000000       1.96554089
Pa       0.00000000       0.00000000       3.17818182       0.00000000       0.00000000      -1.96554089
2
Properties=species:S:1:pos:R:3:forces:R:3 energy=-143.94082330416703 pbc="F F F"
Pa       0.00000000       0.00000000       0.00000000       0.00000000       0.00000000       3.02662945
Pa       0.00000000       0.00000000       3.23696970       0.00000000       0.00000000      -3.02662945
2
Properties=species:S:1:pos:R:3:forces:R:3 energy=-143.7364265052912 pbc="F F F"
Pa       0.00000000       0.00000000       0.00000000       0.00000000       0.00000000       3.86800861
Pa       0.00000000       0.00000000       3.29575758       0.00000000       0.00000000      -3.86800861
2
Properties=species:S:1:pos:R:3:forces:R:3 energy=-143.4942621380657 pbc="F F F"
Pa       0.00000000       0.00000000       0.00000000       0.00000000       0.00000000       4.29695225
Pa       0.00000000       0.00000000       3.35454545       0.00000000       0.00000000      -4.29695225
2
Properties=species:S:1:pos:R:3:forces:R:3 energy=-143.23921711005335 pbc="F F F"
Pa       0.00000000       0.00000000       0.00000000       0.00000000       0.00000000       4.32037544
Pa       0.00000000       0.00000000       3.41333333       0.00000000       0.00000000      -4.32037544
2
Properties=species:S:1:pos:R:3:forces:R:3 energy=-142.9921957658648 pbc="F F F"
Pa       0.00000000       0.00000000       0.00000000       0.00000000       0.00000000       4.04244518
Pa       0.00000000       0.00000000       3.47212121       0.00000000       0.00000000      -4.04244518
2
Properties=species:S:1:pos:R:3:forces:R:3 energy=-142.76773952240038 pbc="F F F"
Pa       0.00000000       0.00000000       0.00000000       0.00000000       0.00000000       3.57008314
Pa       0.00000000       0.00000000       3.53090909       0.00000000       0.00000000      -3.57008314
2
Properties=species:S:1:pos:R:3:forces:R:3 energy=-142.57413374372993 pbc="F F F"
Pa       0.00000000       0.00000000       0.00000000       0.00000000       0.00000000       3.01137114
Pa       0.00000000       0.00000000       3.58969697       0.00000000       0.00000000      -3.01137114
2
Properties=species:S:1:pos:R:3:forces:R:3 energy=-142.413087154467 pbc="F F F"
Pa       0.00000000       0.00000000       0.00000000       0.00000000       0.00000000       2.48174691
Pa       0.00000000       0.00000000       3.64848485       0.00000000       0.00000000      -2.48174691
2
Properties=species:S:1:pos:R:3:forces:R:3 energy=-142.27997614512068 pbc="F F F"
Pa       0.00000000       0.00000000       0.00000000       0.00000000       0.00000000       2.07064748
Pa       0.00000000       0.00000000       3.70727273       0.00000000       0.00000000      -2.07064748
2
Properties=species:S:1:pos:R:3:forces:R:3 energy=-142.16668282766568 pbc="F F F"
Pa       0.00000000       0.00000000       0.00000000       0.00000000       0.00000000       1.80747187
Pa       0.00000000       0.00000000       3.76606061       0.00000000       0.00000000      -1.80747187
2
Properties=species:S:1:pos:R:3:forces:R:3 energy=-142.06505875848464 pbc="F F F"
Pa       0.00000000       0.00000000       0.00000000       0.00000000       0.00000000       1.66620970
Pa       0.00000000       0.00000000       3.82484848       0.00000000       0.00000000      -1.66620970
2
Properties=species:S:1:pos:R:3:forces:R:3 energy=-141.96932061260057 pbc="F F F"
Pa       0.00000000       0.00000000       0.00000000       0.00000000       0.00000000       1.59940195
Pa       0.00000000       0.00000000       3.88363636       0.00000000       0.00000000      -1.59940195
2
Properties=species:S:1:pos:R:3:forces:R:3 energy=-141.8763705992402 pbc="F F F"
Pa       0.00000000       0.00000000       0.00000000       0.00000000       0.00000000       1.56588125
Pa       0.00000000       0.00000000       3.94242424       0.00000000       0.00000000      -1.56588125
2
Properties=species:S:1:pos:R:3:forces:R:3 energy=-141.78514031806515 pbc="F F F"
Pa       0.00000000       0.00000000       0.00000000       0.00000000       0.00000000       1.53647792
Pa       0.00000000       0.00000000       4.00121212       0.00000000       0.00000000      -1.53647792
2
Properties=species:S:1:pos:R:3:forces:R:3 energy=-141.69602622515833 pbc="F F F"
Pa       0.00000000       0.00000000       0.00000000       0.00000000       0.00000000       1.49157953
Pa       0.00000000       0.00000000       4.06000000       0.00000000       0.00000000      -1.49157953
2
Properties=species:S:1:pos:R:3:forces:R:3 energy=-141.61023346074478 pbc="F F F"
Pa       0.00000000       0.00000000       0.00000000       0.00000000       0.00000000       1.42345989
Pa       0.00000000       0.00000000       4.11878788       0.00000000       0.00000000      -1.42345989
2
Properties=species:S:1:pos:R:3:forces:R:3 energy=-141.5289976794598 pbc="F F F"
Pa       0.00000000       0.00000000       0.00000000       0.00000000       0.00000000       1.33848608
Pa       0.00000000       0.00000000       4.17757576       0.00000000       0.00000000      -1.33848608
2
Properties=species:S:1:pos:R:3:forces:R:3 energy=-141.45288314921993 pbc="F F F"
Pa       0.00000000       0.00000000       0.00000000       0.00000000       0.00000000       1.25226581
Pa       0.00000000       0.00000000       4.23636364       0.00000000       0.00000000      -1.25226581
2
Properties=species:S:1:pos:R:3:forces:R:3 energy=-141.38147755009922 pbc="F F F"
Pa       0.00000000       0.00000000       0.00000000       0.00000000       0.00000000       1.18058026
Pa       0.00000000       0.00000000       4.29515152       0.00000000       0.00000000      -1.18058026
2
Properties=species:S:1:pos:R:3:forces:R:3 energy=-141.3136056290541 pbc="F F F"
Pa       0.00000000       0.00000000       0.00000000       0.00000000       0.00000000       1.13295114
Pa       0.00000000       0.00000000       4.35393939       0.00000000       0.00000000      -1.13295114
2
Properties=species:S:1:pos:R:3:forces:R:3 energy=-141.2477564301783 pbc="F F F"
Pa       0.00000000       0.00000000       0.00000000       0.00000000       0.00000000       1.11136472
Pa       0.00000000       0.00000000       4.41272727       0.00000000       0.00000000      -1.11136472
2
Properties=species:S:1:pos:R:3:forces:R:3 energy=-141.18248001371475 pbc="F F F"
Pa       0.00000000       0.00000000       0.00000000       0.00000000       0.00000000       1.11251307
Pa       0.00000000       0.00000000       4.47151515       0.00000000       0.00000000      -1.11251307
2
Properties=species:S:1:pos:R:3:forces:R:3 energy=-141.11661637273778 pbc="F F F"
Pa       0.00000000       0.00000000       0.00000000       0.00000000       0.00000000       1.13058460
Pa       0.00000000       0.00000000       4.53030303       0.00000000       0.00000000      -1.13058460
2
Properties=species:S:1:pos:R:3:forces:R:3 energy=-141.04935643346312 pbc="F F F"
Pa       0.00000000       0.00000000       0.00000000       0.00000000       0.00000000       1.15881467
Pa       0.00000000       0.00000000       4.58909091       0.00000000       0.00000000      -1.15881467
2
Properties=species:S:1:pos:R:3:forces:R:3 energy=-140.98031837136818 pbc="F F F"
Pa       0.00000000       0.00000000       0.00000000       0.00000000       0.00000000       1.18961191
Pa       0.00000000       0.00000000       4.64787879       0.00000000       0.00000000      -1.18961191
2
Properties=species:S:1:pos:R:3:forces:R:3 energy=-140.90960864951592 pbc="F F F"
Pa       0.00000000       0.00000000       0.00000000       0.00000000       0.00000000       1.21389329
Pa       0.00000000       0.00000000       4.70666667       0.00000000       0.00000000      -1.21389329
2
Properties=species:S:1:pos:R:3:forces:R:3 energy=-140.83792882057497 pbc="F F F"
Pa       0.00000000       0.00000000       0.00000000       0.00000000       0.00000000       1.22123146
Pa       0.00000000       0.00000000       4.76545455       0.00000000       0.00000000      -1.22123146
2
Properties=species:S:1:pos:R:3:forces:R:3 energy=-140.76656027119836 pbc="F F F"
Pa       0.00000000       0.00000000       0.00000000       0.00000000       0.00000000       1.20134795
Pa       0.00000000       0.00000000       4.82424242       0.00000000       0.00000000      -1.20134795
2
Properties=species:S:1:pos:R:3:forces:R:3 energy=-140.69736424419813 pbc="F F F"
Pa       0.00000000       0.00000000       0.00000000       0.00000000       0.00000000       1.14698577
Pa       0.00000000       0.00000000       4.88303030       0.00000000       0.00000000      -1.14698577
2
Properties=species:S:1:pos:R:3:forces:R:3 energy=-140.63241560226552 pbc="F F F"
Pa       0.00000000       0.00000000       0.00000000       0.00000000       0.00000000       1.05672455
Pa       0.00000000       0.00000000       4.94181818       0.00000000       0.00000000      -1.05672455
2
Properties=species:S:1:pos:R:3:forces:R:3 energy=-140.57369767119644 pbc="F F F"
Pa       0.00000000       0.00000000       0.00000000       0.00000000       0.00000000       0.93664789
Pa       0.00000000       0.00000000       5.00060606       0.00000000       0.00000000      -0.93664789
2
Properties=species:S:1:pos:R:3:forces:R:3 energy=-140.52261396180933 pbc="F F F"
Pa       0.00000000       0.00000000       0.00000000       0.00000000       0.00000000       0.79951137
Pa       0.00000000       0.00000000       5.05939394       0.00000000       0.00000000      -0.79951137
2
Properties=species:S:1:pos:R:3:forces:R:3 energy=-140.47971351807772 pbc="F F F"
Pa       0.00000000       0.00000000       0.00000000       0.00000000       0.00000000       0.66172087
Pa       0.00000000       0.00000000       5.11818182       0.00000000       0.00000000      -0.66172087
2
Properties=species:S:1:pos:R:3:forces:R:3 energy=-140.44452305302758 pbc="F F F"
Pa       0.00000000       0.00000000       0.00000000       0.00000000       0.00000000       0.53867990
Pa       0.00000000       0.00000000       5.17696970       0.00000000       0.00000000      -0.53867990
2
Properties=species:S:1:pos:R:3:forces:R:3 energy=-140.41588267377472 pbc="F F F"
Pa       0.00000000       0.00000000       0.00000000       0.00000000       0.00000000       0.44010508
Pa       0.00000000       0.00000000       5.23575758       0.00000000       0.00000000      -0.44010508
2
Properties=species:S:1:pos:R:3:forces:R:3 energy=-140.3922815542936 pbc="F F F"
Pa       0.00000000       0.00000000       0.00000000       0.00000000       0.00000000       0.36700168
Pa       0.00000000       0.00000000       5.29454545       0.00000000       0.00000000      -0.36700168
2
Properties=species:S:1:pos:R:3:forces:R:3 energy=-140.37233098955613 pbc="F F F"
Pa       0.00000000       0.00000000       0.00000000       0.00000000       0.00000000       0.31454486
Pa       0.00000000       0.00000000       5.35333333       0.00000000       0.00000000      -0.31454486
2
Properties=species:S:1:pos:R:3:forces:R:3 energy=-140.354886440502 pbc="F F F"
Pa       0.00000000       0.00000000       0.00000000       0.00000000       0.00000000       0.28349590
Pa       0.00000000       0.00000000       5.41212121       0.00000000       0.00000000      -0.28349590
2
Properties=species:S:1:pos:R:3:forces:R:3 energy=-140.33840668073688 pbc="F F F"
Pa       0.00000000       0.00000000       0.00000000       0.00000000       0.00000000       0.28190660
Pa       0.00000000       0.00000000       5.47090909       0.00000000       0.00000000      -0.28190660
2
Properties=species:S:1:pos:R:3:forces:R:3 energy=-140.32151838281519 pbc="F F F"
Pa       0.00000000       0.00000000       0.00000000       0.00000000       0.00000000       0.29063365
Pa       0.00000000       0.00000000       5.52969697       0.00000000       0.00000000      -0.29063365
2
Properties=species:S:1:pos:R:3:forces:R:3 energy=-140.30483190305108 pbc="F F F"
Pa       0.00000000       0.00000000       0.00000000       0.00000000       0.00000000       0.27118132
Pa       0.00000000       0.00000000       5.58848485       0.00000000       0.00000000      -0.27118132
2
Properties=species:S:1:pos:R:3:forces:R:3 energy=-140.29008680992203 pbc="F F F"
Pa       0.00000000       0.00000000       0.00000000       0.00000000       0.00000000       0.23047568
Pa       0.00000000       0.00000000       5.64727273       0.00000000       0.00000000      -0.23047568
2
Properties=species:S:1:pos:R:3:forces:R:3 energy=-140.27732898591725 pbc="F F F"
Pa       0.00000000       0.00000000       0.00000000       0.00000000       0.00000000       0.20934212
Pa       0.00000000       0.00000000       5.70606061       0.00000000       0.00000000      -0.20934212
2
Properties=species:S:1:pos:R:3:forces:R:3 energy=-140.26486488601665 pbc="F F F"
Pa       0.00000000       0.00000000       0.00000000       0.00000000       0.00000000       0.21395189
Pa       0.00000000       0.00000000       5.76484848       0.00000000       0.00000000      -0.21395189
2
Properties=species:S:1:pos:R:3:forces:R:3 energy=-140.252832067405 pbc="F F F"
Pa       0.00000000       0.00000000       0.00000000       0.00000000       0.00000000       0.18594323
Pa       0.00000000       0.00000000       5.82363636       0.00000000       0.00000000      -0.18594323
2
Properties=species:S:1:pos:R:3:forces:R:3 energy=-140.24405369433063 pbc="F F F"
Pa       0.00000000       0.00000000       0.00000000       0.00000000       0.00000000       0.10923657
Pa       0.00000000       0.00000000       5.88242424       0.00000000       0.00000000      -0.10923657
2
Properties=species:S:1:pos:R:3:forces:R:3 energy=-140.23993393493518 pbc="F F F"
Pa       0.00000000       0.00000000       0.00000000       0.00000000       0.00000000       0.03527135
Pa       0.00000000       0.00000000       5.94121212       0.00000000       0.00000000      -0.03527135
2
Properties=species:S:1:pos:R:3:forces:R:3 energy=-140.23899309374468 pbc="F F F"
Pa       0.00000000       0.00000000       0.00000000       0.00000000       0.00000000       0.00648426
Pa       0.00000000       0.00000000       6.00000000       0.00000000       0.00000000      -0.00648426
