2
Properties=species:S:1:pos:R:3:forces:R:3 energy=-21914.7127393155 pbc="F F F"
Pm       0.00000000       0.00000000       0.00000000       0.00000000       0.00000000 -192627.25000000
Pm       0.00000000       0.00000000       0.18000000       0.00000000       0.00000000  192627.25000000
2
Properties=species:S:1:pos:R:3:forces:R:3 energy=-28551.5037549405 pbc="F F F"
Pm       0.00000000       0.00000000       0.00000000       0.00000000       0.00000000  -59752.41015625
Pm       0.00000000       0.00000000       0.23878788       0.00000000       0.00000000   59752.41015625
2
Properties=species:S:1:pos:R:3:forces:R:3 energy=-30512.9510205655 pbc="F F F"
Pm       0.00000000       0.00000000       0.00000000       0.00000000       0.00000000  -13273.05957031
Pm       0.00000000       0.00000000       0.29757576       0.00000000       0.00000000   13273.05957031
2
Properties=species:S:1:pos:R:3:forces:R:3 energy=-30500.9178174405 pbc="F F F"
Pm       0.00000000       0.00000000       0.00000000       0.00000000       0.00000000   12168.24707031
Pm       0.00000000       0.00000000       0.35636364       0.00000000       0.00000000  -12168.24707031
2
Properties=species:S:1:pos:R:3:forces:R:3 energy=-29163.8768018155 pbc="F F F"
Pm       0.00000000       0.00000000       0.00000000       0.00000000       0.00000000   33097.13671875
Pm       0.00000000       0.00000000       0.41515152       0.00000000       0.00000000  -33097.13671875
2
Properties=species:S:1:pos:R:3:forces:R:3 energy=-26616.62680181233 pbc="F F F"
Pm       0.00000000       0.00000000       0.00000000       0.00000000       0.00000000   53489.41796875
Pm       0.00000000       0.00000000       0.47393939       0.00000000       0.00000000  -53489.41796875
2
Properties=species:S:1:pos:R:3:forces:R:3 energy=-22907.98812993733 pbc="F F F"
Pm       0.00000000       0.00000000       0.00000000       0.00000000       0.00000000   72096.17968750
Pm       0.00000000       0.00000000       0.53272727       0.00000000       0.00000000  -72096.17968750
2
Properties=species:S:1:pos:R:3:forces:R:3 energy=-18256.36117681233 pbc="F F F"
Pm       0.00000000       0.00000000       0.00000000       0.00000000       0.00000000   84742.75000000
Pm       0.00000000       0.00000000       0.59151515       0.00000000       0.00000000  -84742.75000000
2
Properties=species:S:1:pos:R:3:forces:R:3 energy=-13158.017426805996 pbc="F F F"
Pm       0.00000000       0.00000000       0.00000000       0.00000000       0.00000000   86577.57031250
Pm       0.00000000       0.00000000       0.65030303       0.00000000       0.00000000  -86577.57031250
2
Properties=species:S:1:pos:R:3:forces:R:3 energy=-8336.946137733992 pbc="F F F"
Pm       0.00000000       0.00000000       0.00000000       0.00000000       0.00000000   75332.70312500
Pm       0.00000000       0.00000000       0.70909091       0.00000000       0.00000000  -75332.70312500
2
Properties=species:S:1:pos:R:3:forces:R:3 energy=-4499.085297880739 pbc="F F F"
Pm       0.00000000       0.00000000       0.00000000       0.00000000       0.00000000   54146.41406250
Pm       0.00000000       0.00000000       0.76787879       0.00000000       0.00000000  -54146.41406250
2
Properties=species:S:1:pos:R:3:forces:R:3 energy=-2009.2211621195447 pbc="F F F"
Pm       0.00000000       0.00000000       0.00000000       0.00000000       0.00000000   30983.08203125
Pm       0.00000000       0.00000000       0.82666667       0.00000000       0.00000000  -30983.08203125
2
Properties=species:S:1:pos:R:3:forces:R:3 energy=-739.5218823122137 pbc="F F F"
Pm       0.00000000       0.00000000       0.00000000       0.00000000       0.00000000   13569.23046875
Pm       0.00000000       0.00000000       0.88545455       0.00000000       0.00000000  -13569.23046875
2
Properties=species:S:1:pos:R:3:forces:R:3 energy=-250.5221111592036 pbc="F F F"
Pm       0.00000000       0.00000000       0.00000000       0.00000000       0.00000000    4310.68212891
Pm       0.00000000       0.00000000       0.94424242       0.00000000       0.00000000   -4310.68212891
2
Properties=species:S:1:pos:R:3:forces:R:3 energy=-81.86287801842457 pbc="F F F"
Pm       0.00000000       0.00000000       0.00000000       0.00000000       0.00000000    1155.23840332
Pm       0.00000000       0.00000000       1.00303030       0.00000000       0.00000000   -1155.23840332
2
Properties=species:S:1:pos:R:3:forces:R:3 energy=-60.92242156785508 pbc="F F F"
Pm       0.00000000       0.00000000       0.00000000       0.00000000       0.00000000     103.27426147
Pm       0.00000000       0.00000000       1.06181818       0.00000000       0.00000000    -103.27426147
2
Properties=species:S:1:pos:R:3:forces:R:3 energy=-56.07724860341163 pbc="F F F"
Pm       0.00000000       0.00000000       0.00000000       0.00000000       0.00000000      67.56423187
Pm       0.00000000       0.00000000       1.12060606       0.00000000       0.00000000     -67.56423187
2
Properties=species:S:1:pos:R:3:forces:R:3 energy=-52.89391795348136 pbc="F F F"
Pm       0.00000000       0.00000000       0.00000000       0.00000000       0.00000000      44.05451202
Pm       0.00000000       0.00000000       1.17939394       0.00000000       0.00000000     -44.05451202
2
Properties=species:S:1:pos:R:3:forces:R:3 energy=-50.75354840198181 pbc="F F F"
Pm       0.00000000       0.00000000       0.00000000       0.00000000       0.00000000      26.90099907
Pm       0.00000000       0.00000000       1.23818182       0.00000000       0.00000000     -26.90099907
2
Properties=species:S:1:pos:R:3:forces:R:3 energy=-49.840881900615166 pbc="F F F"
Pm       0.00000000       0.00000000       0.00000000       0.00000000       0.00000000       5.71786928
Pm       0.00000000       0.00000000       1.29696970       0.00000000       0.00000000      -5.71786928
2
Properties=species:S:1:pos:R:3:forces:R:3 energy=-49.867115351963314 pbc="F F F"
Pm       0.00000000       0.00000000       0.00000000       0.00000000       0.00000000      -6.00682402
Pm       0.00000000       0.00000000       1.35575758       0.00000000       0.00000000       6.00682402
2
Properties=species:S:1:pos:R:3:forces:R:3 energy=-50.57601171015786 pbc="F F F"
Pm       0.00000000       0.00000000       0.00000000       0.00000000       0.00000000     -18.22358131
Pm       0.00000000       0.00000000       1.41454545       0.00000000       0.00000000      18.22358131
2
Properties=species:S:1:pos:R:3:forces:R:3 energy=-51.93482179283775 pbc="F F F"
Pm       0.00000000       0.00000000       0.00000000       0.00000000       0.00000000     -26.94726181
Pm       0.00000000       0.00000000       1.47333333       0.00000000       0.00000000      26.94726181
2
Properties=species:S:1:pos:R:3:forces:R:3 energy=-53.63598561395506 pbc="F F F"
Pm       0.00000000       0.00000000       0.00000000       0.00000000       0.00000000     -30.25295258
Pm       0.00000000       0.00000000       1.53212121       0.00000000       0.00000000      30.25295258
2
Properties=species:S:1:pos:R:3:forces:R:3 energy=-55.43637343378168 pbc="F F F"
Pm       0.00000000       0.00000000       0.00000000       0.00000000       0.00000000     -30.67035484
Pm       0.00000000       0.00000000       1.59090909       0.00000000       0.00000000      30.67035484
2
Properties=species:S:1:pos:R:3:forces:R:3 energy=-57.21247297474777 pbc="F F F"
Pm       0.00000000       0.00000000       0.00000000       0.00000000       0.00000000     -29.53639793
Pm       0.00000000       0.00000000       1.64969697       0.00000000       0.00000000      29.53639793
2
Properties=species:S:1:pos:R:3:forces:R:3 energy=-58.88188674740542 pbc="F F F"
Pm       0.00000000       0.00000000       0.00000000       0.00000000       0.00000000     -26.99809456
Pm       0.00000000       0.00000000       1.70848485       0.00000000       0.00000000      26.99809456
2
Properties=species:S:1:pos:R:3:forces:R:3 energy=-60.355541554763164 pbc="F F F"
Pm       0.00000000       0.00000000       0.00000000       0.00000000       0.00000000     -22.90255356
Pm       0.00000000       0.00000000       1.76727273       0.00000000       0.00000000      22.90255356
2
Properties=species:S:1:pos:R:3:forces:R:3 energy=-61.557212097052364 pbc="F F F"
Pm       0.00000000       0.00000000       0.00000000       0.00000000       0.00000000     -17.93627930
Pm       0.00000000       0.00000000       1.82606061       0.00000000       0.00000000      17.93627930
2
Properties=species:S:1:pos:R:3:forces:R:3 energy=-62.47158614777057 pbc="F F F"
Pm       0.00000000       0.00000000       0.00000000       0.00000000       0.00000000     -13.31881714
Pm       0.00000000       0.00000000       1.88484848       0.00000000       0.00000000      13.31881714
2
Properties=species:S:1:pos:R:3:forces:R:3 energy=-63.146644950117896 pbc="F F F"
Pm       0.00000000       0.00000000       0.00000000       0.00000000       0.00000000      -9.87354946
Pm       0.00000000       0.00000000       1.94363636       0.00000000       0.00000000       9.87354946
2
Properties=species:S:1:pos:R:3:forces:R:3 energy=-63.65817124829501 pbc="F F F"
Pm       0.00000000       0.00000000       0.00000000       0.00000000       0.00000000      -7.72063828
Pm       0.00000000       0.00000000       2.00242424       0.00000000       0.00000000       7.72063828
2
Properties=species:S:1:pos:R:3:forces:R:3 energy=-64.07191894105563 pbc="F F F"
Pm       0.00000000       0.00000000       0.00000000       0.00000000       0.00000000      -6.45944929
Pm       0.00000000       0.00000000       2.06121212       0.00000000       0.00000000       6.45944929
2
Properties=species:S:1:pos:R:3:forces:R:3 energy=-64.42546276162012 pbc="F F F"
Pm       0.00000000       0.00000000       0.00000000       0.00000000       0.00000000      -5.60572767
Pm       0.00000000       0.00000000       2.12000000       0.00000000       0.00000000       5.60572767
2
Properties=species:S:1:pos:R:3:forces:R:3 energy=-64.73345110630679 pbc="F F F"
Pm       0.00000000       0.00000000       0.00000000       0.00000000       0.00000000      -4.88280201
Pm       0.00000000       0.00000000       2.17878788       0.00000000       0.00000000       4.88280201
2
Properties=species:S:1:pos:R:3:forces:R:3 energy=-65.00033949400456 pbc="F F F"
Pm       0.00000000       0.00000000       0.00000000       0.00000000       0.00000000      -4.20195246
Pm       0.00000000       0.00000000       2.23757576       0.00000000       0.00000000       4.20195246
2
Properties=species:S:1:pos:R:3:forces:R:3 energy=-65.22803522899673 pbc="F F F"
Pm       0.00000000       0.00000000       0.00000000       0.00000000       0.00000000      -3.54882097
Pm       0.00000000       0.00000000       2.29636364       0.00000000       0.00000000       3.54882097
2
Properties=species:S:1:pos:R:3:forces:R:3 energy=-65.41807939512564 pbc="F F F"
Pm       0.00000000       0.00000000       0.00000000       0.00000000       0.00000000      -2.92023230
Pm       0.00000000       0.00000000       2.35515152       0.00000000       0.00000000       2.92023230
2
Properties=species:S:1:pos:R:3:forces:R:3 energy=-65.571761290375 pbc="F F F"
Pm       0.00000000       0.00000000       0.00000000       0.00000000       0.00000000      -2.31104898
Pm       0.00000000       0.00000000       2.41393939       0.00000000       0.00000000       2.31104898
2
Properties=species:S:1:pos:R:3:forces:R:3 energy=-65.69019475566117 pbc="F F F"
Pm       0.00000000       0.00000000       0.00000000       0.00000000       0.00000000      -1.72227991
Pm       0.00000000       0.00000000       2.47272727       0.00000000       0.00000000       1.72227991
2
Properties=species:S:1:pos:R:3:forces:R:3 energy=-65.77489033507365 pbc="F F F"
Pm       0.00000000       0.00000000       0.00000000       0.00000000       0.00000000      -1.16606355
Pm       0.00000000       0.00000000       2.53151515       0.00000000       0.00000000       1.16606355
2
Properties=species:S:1:pos:R:3:forces:R:3 energy=-65.82827410321345 pbc="F F F"
Pm       0.00000000       0.00000000       0.00000000       0.00000000       0.00000000      -0.65943736
Pm       0.00000000       0.00000000       2.59030303       0.00000000       0.00000000       0.65943736
2
Properties=species:S:1:pos:R:3:forces:R:3 energy=-65.85364950554923 pbc="F F F"
Pm       0.00000000       0.00000000       0.00000000       0.00000000       0.00000000      -0.21469405
Pm       0.00000000       0.00000000       2.64909091       0.00000000       0.00000000       0.21469405
2
Properties=species:S:1:pos:R:3:forces:R:3 energy=-65.85480825929618 pbc="F F F"
Pm       0.00000000       0.00000000       0.00000000       0.00000000       0.00000000       0.16410507
Pm       0.00000000       0.00000000       2.70787879       0.00000000       0.00000000      -0.16410507
2
Properties=species:S:1:pos:R:3:forces:R:3 energy=-65.83563363123604 pbc="F F F"
Pm       0.00000000       0.00000000       0.00000000       0.00000000       0.00000000       0.47734582
Pm       0.00000000       0.00000000       2.76666667       0.00000000       0.00000000      -0.47734582
2
Properties=species:S:1:pos:R:3:forces:R:3 energy=-65.79997836740459 pbc="F F F"
Pm       0.00000000       0.00000000       0.00000000       0.00000000       0.00000000       0.72457033
Pm       0.00000000       0.00000000       2.82545455       0.00000000       0.00000000      -0.72457033
2
Properties=species:S:1:pos:R:3:forces:R:3 energy=-65.75178675390075 pbc="F F F"
Pm       0.00000000       0.00000000       0.00000000       0.00000000       0.00000000       0.90344185
Pm       0.00000000       0.00000000       2.88424242       0.00000000       0.00000000      -0.90344185
2
Properties=species:S:1:pos:R:3:forces:R:3 energy=-65.69510987884333 pbc="F F F"
Pm       0.00000000       0.00000000       0.00000000       0.00000000       0.00000000       1.01359284
Pm       0.00000000       0.00000000       2.94303030       0.00000000       0.00000000      -1.01359284
2
Properties=species:S:1:pos:R:3:forces:R:3 energy=-65.63384623929277 pbc="F F F"
Pm       0.00000000       0.00000000       0.00000000       0.00000000       0.00000000       1.06106377
Pm       0.00000000       0.00000000       3.00181818       0.00000000       0.00000000      -1.06106377
2
Properties=species:S:1:pos:R:3:forces:R:3 energy=-65.57132210871266 pbc="F F F"
Pm       0.00000000       0.00000000       0.00000000       0.00000000       0.00000000       1.05908394
Pm       0.00000000       0.00000000       3.06060606       0.00000000       0.00000000      -1.05908394
2
Properties=species:S:1:pos:R:3:forces:R:3 energy=-65.50995586895309 pbc="F F F"
Pm       0.00000000       0.00000000       0.00000000       0.00000000       0.00000000       1.02489626
Pm       0.00000000       0.00000000       3.11939394       0.00000000       0.00000000      -1.02489626
2
Properties=species:S:1:pos:R:3:forces:R:3 energy=-65.4511130200762 pbc="F F F"
Pm       0.00000000       0.00000000       0.00000000       0.00000000       0.00000000       0.97561032
Pm       0.00000000       0.00000000       3.17818182       0.00000000       0.00000000      -0.97561032
2
Properties=species:S:1:pos:R:3:forces:R:3 energy=-65.39525116736277 pbc="F F F"
Pm       0.00000000       0.00000000       0.00000000       0.00000000       0.00000000       0.92576653
Pm       0.00000000       0.00000000       3.23696970       0.00000000       0.00000000      -0.92576653
2
Properties=species:S:1:pos:R:3:forces:R:3 energy=-65.34204206628209 pbc="F F F"
Pm       0.00000000       0.00000000       0.00000000       0.00000000       0.00000000       0.88732177
Pm       0.00000000       0.00000000       3.29575758       0.00000000       0.00000000      -0.88732177
2
Properties=species:S:1:pos:R:3:forces:R:3 energy=-65.29050135070942 pbc="F F F"
Pm       0.00000000       0.00000000       0.00000000       0.00000000       0.00000000       0.87071663
Pm       0.00000000       0.00000000       3.35454545       0.00000000       0.00000000      -0.87071663
2
Properties=species:S:1:pos:R:3:forces:R:3 energy=-65.23905711511335 pbc="F F F"
Pm       0.00000000       0.00000000       0.00000000       0.00000000       0.00000000       0.88511854
Pm       0.00000000       0.00000000       3.41333333       0.00000000       0.00000000      -0.88511854
2
Properties=species:S:1:pos:R:3:forces:R:3 energy=-65.18569503144307 pbc="F F F"
Pm       0.00000000       0.00000000       0.00000000       0.00000000       0.00000000       0.93670875
Pm       0.00000000       0.00000000       3.47212121       0.00000000       0.00000000      -0.93670875
2
Properties=species:S:1:pos:R:3:forces:R:3 energy=-65.12818706940534 pbc="F F F"
Pm       0.00000000       0.00000000       0.00000000       0.00000000       0.00000000       1.02570307
Pm       0.00000000       0.00000000       3.53090909       0.00000000       0.00000000      -1.02570307
2
Properties=species:S:1:pos:R:3:forces:R:3 energy=-65.06451882492159 pbc="F F F"
Pm       0.00000000       0.00000000       0.00000000       0.00000000       0.00000000       1.14401174
Pm       0.00000000       0.00000000       3.58969697       0.00000000       0.00000000      -1.14401174
2
Properties=species:S:1:pos:R:3:forces:R:3 energy=-64.99341592934368 pbc="F F F"
Pm       0.00000000       0.00000000       0.00000000       0.00000000       0.00000000       1.27530634
Pm       0.00000000       0.00000000       3.64848485       0.00000000       0.00000000      -1.27530634
2
Properties=species:S:1:pos:R:3:forces:R:3 energy=-64.91474842320318 pbc="F F F"
Pm       0.00000000       0.00000000       0.00000000       0.00000000       0.00000000       1.39767969
Pm       0.00000000       0.00000000       3.70727273       0.00000000       0.00000000      -1.39767969
2
Properties=species:S:1:pos:R:3:forces:R:3 energy=-64.82971384900878 pbc="F F F"
Pm       0.00000000       0.00000000       0.00000000       0.00000000       0.00000000       1.48800755
Pm       0.00000000       0.00000000       3.76606061       0.00000000       0.00000000      -1.48800755
2
Properties=species:S:1:pos:R:3:forces:R:3 energy=-64.74080672416474 pbc="F F F"
Pm       0.00000000       0.00000000       0.00000000       0.00000000       0.00000000       1.52677238
Pm       0.00000000       0.00000000       3.82484848       0.00000000       0.00000000      -1.52677238
2
Properties=species:S:1:pos:R:3:forces:R:3 energy=-64.65144472598142 pbc="F F F"
Pm       0.00000000       0.00000000       0.00000000       0.00000000       0.00000000       1.50244820
Pm       0.00000000       0.00000000       3.88363636       0.00000000       0.00000000      -1.50244820
2
Properties=species:S:1:pos:R:3:forces:R:3 energy=-64.5654117300354 pbc="F F F"
Pm       0.00000000       0.00000000       0.00000000       0.00000000       0.00000000       1.41458046
Pm       0.00000000       0.00000000       3.94242424       0.00000000       0.00000000      -1.41458046
2
Properties=species:S:1:pos:R:3:forces:R:3 energy=-64.48616350992452 pbc="F F F"
Pm       0.00000000       0.00000000       0.00000000       0.00000000       0.00000000       1.27436936
Pm       0.00000000       0.00000000       4.00121212       0.00000000       0.00000000      -1.27436936
2
Properties=species:S:1:pos:R:3:forces:R:3 energy=-64.41620979432481 pbc="F F F"
Pm       0.00000000       0.00000000       0.00000000       0.00000000       0.00000000       1.10189557
Pm       0.00000000       0.00000000       4.06000000       0.00000000       0.00000000      -1.10189557
2
Properties=species:S:1:pos:R:3:forces:R:3 energy=-64.35677094423646 pbc="F F F"
Pm       0.00000000       0.00000000       0.00000000       0.00000000       0.00000000       0.92073476
Pm       0.00000000       0.00000000       4.11878788       0.00000000       0.00000000      -0.92073476
2
Properties=species:S:1:pos:R:3:forces:R:3 energy=-64.30770162102472 pbc="F F F"
Pm       0.00000000       0.00000000       0.00000000       0.00000000       0.00000000       0.75213164
Pm       0.00000000       0.00000000       4.17757576       0.00000000       0.00000000      -0.75213164
2
Properties=species:S:1:pos:R:3:forces:R:3 energy=-64.26779600655063 pbc="F F F"
Pm       0.00000000       0.00000000       0.00000000       0.00000000       0.00000000       0.61109912
Pm       0.00000000       0.00000000       4.23636364       0.00000000       0.00000000      -0.61109912
2
Properties=species:S:1:pos:R:3:forces:R:3 energy=-64.23516162132832 pbc="F F F"
Pm       0.00000000       0.00000000       0.00000000       0.00000000       0.00000000       0.50514561
Pm       0.00000000       0.00000000       4.29515152       0.00000000       0.00000000      -0.50514561
2
Properties=species:S:1:pos:R:3:forces:R:3 energy=-64.20769235015375 pbc="F F F"
Pm       0.00000000       0.00000000       0.00000000       0.00000000       0.00000000       0.43518785
Pm       0.00000000       0.00000000       4.35393939       0.00000000       0.00000000      -0.43518785
2
Properties=species:S:1:pos:R:3:forces:R:3 energy=-64.18336599482708 pbc="F F F"
Pm       0.00000000       0.00000000       0.00000000       0.00000000       0.00000000       0.39738405
Pm       0.00000000       0.00000000       4.41272727       0.00000000       0.00000000      -0.39738405
2
Properties=species:S:1:pos:R:3:forces:R:3 energy=-64.16046552025846 pbc="F F F"
Pm       0.00000000       0.00000000       0.00000000       0.00000000       0.00000000       0.38513109
Pm       0.00000000       0.00000000       4.47151515       0.00000000       0.00000000      -0.38513109
2
Properties=species:S:1:pos:R:3:forces:R:3 energy=-64.13773166453332 pbc="F F F"
Pm       0.00000000       0.00000000       0.00000000       0.00000000       0.00000000       0.39057600
Pm       0.00000000       0.00000000       4.53030303       0.00000000       0.00000000      -0.39057600
2
Properties=species:S:1:pos:R:3:forces:R:3 energy=-64.11435526833625 pbc="F F F"
Pm       0.00000000       0.00000000       0.00000000       0.00000000       0.00000000       0.40564510
Pm       0.00000000       0.00000000       4.58909091       0.00000000       0.00000000      -0.40564510
2
Properties=species:S:1:pos:R:3:forces:R:3 energy=-64.09000022015537 pbc="F F F"
Pm       0.00000000       0.00000000       0.00000000       0.00000000       0.00000000       0.42265609
Pm       0.00000000       0.00000000       4.64787879       0.00000000       0.00000000      -0.42265609
2
Properties=species:S:1:pos:R:3:forces:R:3 energy=-64.0647652617923 pbc="F F F"
Pm       0.00000000       0.00000000       0.00000000       0.00000000       0.00000000       0.43469238
Pm       0.00000000       0.00000000       4.70666667       0.00000000       0.00000000      -0.43469238
2
Properties=species:S:1:pos:R:3:forces:R:3 energy=-64.03910010620405 pbc="F F F"
Pm       0.00000000       0.00000000       0.00000000       0.00000000       0.00000000       0.43608055
Pm       0.00000000       0.00000000       4.76545455       0.00000000       0.00000000      -0.43608055
2
Properties=species:S:1:pos:R:3:forces:R:3 energy=-64.01377488824662 pbc="F F F"
Pm       0.00000000       0.00000000       0.00000000       0.00000000       0.00000000       0.42304775
Pm       0.00000000       0.00000000       4.82424242       0.00000000       0.00000000      -0.42304775
2
Properties=species:S:1:pos:R:3:forces:R:3 energy=-63.98967039433931 pbc="F F F"
Pm       0.00000000       0.00000000       0.00000000       0.00000000       0.00000000       0.39458388
Pm       0.00000000       0.00000000       4.88303030       0.00000000       0.00000000      -0.39458388
2
Properties=species:S:1:pos:R:3:forces:R:3 energy=-63.96763689649114 pbc="F F F"
Pm       0.00000000       0.00000000       0.00000000       0.00000000       0.00000000       0.35316160
Pm       0.00000000       0.00000000       4.94181818       0.00000000       0.00000000      -0.35316160
2
Properties=species:S:1:pos:R:3:forces:R:3 energy=-63.948276711388836 pbc="F F F"
Pm       0.00000000       0.00000000       0.00000000       0.00000000       0.00000000       0.30494428
Pm       0.00000000       0.00000000       5.00060606       0.00000000       0.00000000      -0.30494428
2
Properties=species:S:1:pos:R:3:forces:R:3 energy=-63.93174206262347 pbc="F F F"
Pm       0.00000000       0.00000000       0.00000000       0.00000000       0.00000000       0.25888464
Pm       0.00000000       0.00000000       5.05939394       0.00000000       0.00000000      -0.25888464
2
Properties=species:S:1:pos:R:3:forces:R:3 energy=-63.917609167170305 pbc="F F F"
Pm       0.00000000       0.00000000       0.00000000       0.00000000       0.00000000       0.22454765
Pm       0.00000000       0.00000000       5.11818182       0.00000000       0.00000000      -0.22454765
2
Properties=species:S:1:pos:R:3:forces:R:3 energy=-63.904973609156066 pbc="F F F"
Pm       0.00000000       0.00000000       0.00000000       0.00000000       0.00000000       0.20858853
Pm       0.00000000       0.00000000       5.17696970       0.00000000       0.00000000      -0.20858853
2
Properties=species:S:1:pos:R:3:forces:R:3 energy=-63.89272501390116 pbc="F F F"
Pm       0.00000000       0.00000000       0.00000000       0.00000000       0.00000000       0.21055943
Pm       0.00000000       0.00000000       5.23575758       0.00000000       0.00000000      -0.21055943
2
Properties=species:S:1:pos:R:3:forces:R:3 energy=-63.88005822052114 pbc="F F F"
Pm       0.00000000       0.00000000       0.00000000       0.00000000       0.00000000       0.22058062
Pm       0.00000000       0.00000000       5.29454545       0.00000000       0.00000000      -0.22058062
2
Properties=species:S:1:pos:R:3:forces:R:3 energy=-63.866896713323136 pbc="F F F"
Pm       0.00000000       0.00000000       0.00000000       0.00000000       0.00000000       0.22578827
Pm       0.00000000       0.00000000       5.35333333       0.00000000       0.00000000      -0.22578827
2
Properties=species:S:1:pos:R:3:forces:R:3 energy=-63.853522596171125 pbc="F F F"
Pm       0.00000000       0.00000000       0.00000000       0.00000000       0.00000000       0.23147160
Pm       0.00000000       0.00000000       5.41212121       0.00000000       0.00000000      -0.23147160
2
Properties=species:S:1:pos:R:3:forces:R:3 energy=-63.83910794670992 pbc="F F F"
Pm       0.00000000       0.00000000       0.00000000       0.00000000       0.00000000       0.26493537
Pm       0.00000000       0.00000000       5.47090909       0.00000000       0.00000000      -0.26493537
2
Properties=species:S:1:pos:R:3:forces:R:3 energy=-63.822012372255415 pbc="F F F"
Pm       0.00000000       0.00000000       0.00000000       0.00000000       0.00000000       0.31436071
Pm       0.00000000       0.00000000       5.52969697       0.00000000       0.00000000      -0.31436071
2
Properties=species:S:1:pos:R:3:forces:R:3 energy=-63.80296063360984 pbc="F F F"
Pm       0.00000000       0.00000000       0.00000000       0.00000000       0.00000000       0.32498282
Pm       0.00000000       0.00000000       5.58848485       0.00000000       0.00000000      -0.32498282
2
Properties=species:S:1:pos:R:3:forces:R:3 energy=-63.78450099289615 pbc="F F F"
Pm       0.00000000       0.00000000       0.00000000       0.00000000       0.00000000       0.30243877
Pm       0.00000000       0.00000000       5.64727273       0.00000000       0.00000000      -0.30243877
2
Properties=species:S:1:pos:R:3:forces:R:3 energy=-63.7667060307327 pbc="F F F"
Pm       0.00000000       0.00000000       0.00000000       0.00000000       0.00000000       0.31430098
Pm       0.00000000       0.00000000       5.70606061       0.00000000       0.00000000      -0.31430098
2
Properties=species:S:1:pos:R:3:forces:R:3 energy=-63.74639826902398 pbc="F F F"
Pm       0.00000000       0.00000000       0.00000000       0.00000000       0.00000000       0.37700963
Pm       0.00000000       0.00000000       5.76484848       0.00000000       0.00000000      -0.37700963
2
Properties=species:S:1:pos:R:3:forces:R:3 energy=-63.723722916524025 pbc="F F F"
Pm       0.00000000       0.00000000       0.00000000       0.00000000       0.00000000       0.37323102
Pm       0.00000000       0.00000000       5.82363636       0.00000000       0.00000000      -0.37323102
2
Properties=species:S:1:pos:R:3:forces:R:3 energy=-63.705302594964714 pbc="F F F"
Pm       0.00000000       0.00000000       0.00000000       0.00000000       0.00000000       0.23783940
Pm       0.00000000       0.00000000       5.88242424       0.00000000       0.00000000      -0.23783940
2
Properties=species:S:1:pos:R:3:forces:R:3 energy=-63.69627608803714 pbc="F F F"
Pm       0.00000000       0.00000000       0.00000000       0.00000000       0.00000000       0.07527994
Pm       0.00000000       0.00000000       5.94121212       0.00000000       0.00000000      -0.07527994
2
Properties=species:S:1:pos:R:3:forces:R:3 energy=-63.69448855745609 pbc="F F F"
Pm       0.00000000       0.00000000       0.00000000       0.00000000       0.00000000       0.00786583
Pm       0.00000000       0.00000000       6.00000000       0.00000000       0.00000000      -0.00786583
