2
Properties=species:S:1:pos:R:3:forces:R:3 energy=24296.0470263095 pbc="F F F"
Pm       0.00000000       0.00000000       0.00000000       0.00000000       0.00000000 -1423150.50000000
Pm       0.00000000       0.00000000       0.10000000       0.00000000       0.00000000 1423150.50000000
2
Properties=species:S:1:pos:R:3:forces:R:3 energy=-16985.4158643155 pbc="F F F"
Pm       0.00000000       0.00000000       0.00000000       0.00000000       0.00000000 -299718.09375000
Pm       0.00000000       0.00000000       0.15959596       0.00000000       0.00000000  299718.09375000
2
Properties=species:S:1:pos:R:3:forces:R:3 energy=-27121.4959424405 pbc="F F F"
Pm       0.00000000       0.00000000       0.00000000       0.00000000       0.00000000  -87874.15625000
Pm       0.00000000       0.00000000       0.21919192       0.00000000       0.00000000   87874.15625000
2
Properties=species:S:1:pos:R:3:forces:R:3 energy=-30162.9275830655 pbc="F F F"
Pm       0.00000000       0.00000000       0.00000000       0.00000000       0.00000000  -24367.56445312
Pm       0.00000000       0.00000000       0.27878788       0.00000000       0.00000000   24367.56445312
2
Properties=species:S:1:pos:R:3:forces:R:3 energy=-30658.2146924405 pbc="F F F"
Pm       0.00000000       0.00000000       0.00000000       0.00000000       0.00000000    5261.41357422
Pm       0.00000000       0.00000000       0.33838384       0.00000000       0.00000000   -5261.41357422
2
Properties=species:S:1:pos:R:3:forces:R:3 energy=-29680.9568799405 pbc="F F F"
Pm       0.00000000       0.00000000       0.00000000       0.00000000       0.00000000   27088.93359375
Pm       0.00000000       0.00000000       0.39797980       0.00000000       0.00000000  -27088.93359375
2
Properties=species:S:1:pos:R:3:forces:R:3 energy=-27446.50961431233 pbc="F F F"
Pm       0.00000000       0.00000000       0.00000000       0.00000000       0.00000000   47871.14453125
Pm       0.00000000       0.00000000       0.45757576       0.00000000       0.00000000  -47871.14453125
2
Properties=species:S:1:pos:R:3:forces:R:3 energy=-23994.24008306233 pbc="F F F"
Pm       0.00000000       0.00000000       0.00000000       0.00000000       0.00000000   67546.50781250
Pm       0.00000000       0.00000000       0.51717172       0.00000000       0.00000000  -67546.50781250
2
Properties=species:S:1:pos:R:3:forces:R:3 energy=-19489.73031743733 pbc="F F F"
Pm       0.00000000       0.00000000       0.00000000       0.00000000       0.00000000   82412.51562500
Pm       0.00000000       0.00000000       0.57676768       0.00000000       0.00000000  -82412.51562500
2
Properties=species:S:1:pos:R:3:forces:R:3 energy=-14370.742036180996 pbc="F F F"
Pm       0.00000000       0.00000000       0.00000000       0.00000000       0.00000000   87314.71093750
Pm       0.00000000       0.00000000       0.63636364       0.00000000       0.00000000  -87314.71093750
2
Properties=species:S:1:pos:R:3:forces:R:3 energy=-9350.27133304966 pbc="F F F"
Pm       0.00000000       0.00000000       0.00000000       0.00000000       0.00000000   78913.70312500
Pm       0.00000000       0.00000000       0.69595960       0.00000000       0.00000000  -78913.70312500
2
Properties=species:S:1:pos:R:3:forces:R:3 energy=-5196.767426786989 pbc="F F F"
Pm       0.00000000       0.00000000       0.00000000       0.00000000       0.00000000   59057.65625000
Pm       0.00000000       0.00000000       0.75555556       0.00000000       0.00000000  -59057.65625000
2
Properties=species:S:1:pos:R:3:forces:R:3 energy=-2390.3528759930678 pbc="F F F"
Pm       0.00000000       0.00000000       0.00000000       0.00000000       0.00000000   35254.07812500
Pm       0.00000000       0.00000000       0.81515152       0.00000000       0.00000000  -35254.07812500
2
Properties=species:S:1:pos:R:3:forces:R:3 energy=-898.196809073194 pbc="F F F"
Pm       0.00000000       0.00000000       0.00000000       0.00000000       0.00000000   16118.76757812
Pm       0.00000000       0.00000000       0.87474747       0.00000000       0.00000000  -16118.76757812
2
Properties=species:S:1:pos:R:3:forces:R:3 energy=-298.2988293051877 pbc="F F F"
Pm       0.00000000       0.00000000       0.00000000       0.00000000       0.00000000    5371.17578125
Pm       0.00000000       0.00000000       0.93434343       0.00000000       0.00000000   -5371.17578125
2
Properties=species:S:1:pos:R:3:forces:R:3 energy=-94.49835318661944 pbc="F F F"
Pm       0.00000000       0.00000000       0.00000000       0.00000000       0.00000000    1643.88854980
Pm       0.00000000       0.00000000       0.99393939       0.00000000       0.00000000   -1643.88854980
2
Properties=species:S:1:pos:R:3:forces:R:3 energy=-61.75491440255987 pbc="F F F"
Pm       0.00000000       0.00000000       0.00000000       0.00000000       0.00000000      89.94110870
Pm       0.00000000       0.00000000       1.05353535       0.00000000       0.00000000     -89.94110870
2
Properties=species:S:1:pos:R:3:forces:R:3 energy=-56.59658912805182 pbc="F F F"
Pm       0.00000000       0.00000000       0.00000000       0.00000000       0.00000000      71.37442780
Pm       0.00000000       0.00000000       1.11313131       0.00000000       0.00000000     -71.37442780
2
Properties=species:S:1:pos:R:3:forces:R:3 energy=-53.19309323493947 pbc="F F F"
Pm       0.00000000       0.00000000       0.00000000       0.00000000       0.00000000      45.71870041
Pm       0.00000000       0.00000000       1.17272727       0.00000000       0.00000000     -45.71870041
2
Properties=species:S:1:pos:R:3:forces:R:3 energy=-50.91785124374865 pbc="F F F"
Pm       0.00000000       0.00000000       0.00000000       0.00000000       0.00000000      29.17395973
Pm       0.00000000       0.00000000       1.23232323       0.00000000       0.00000000     -29.17395973
2
Properties=species:S:1:pos:R:3:forces:R:3 energy=-49.873154258489286 pbc="F F F"
Pm       0.00000000       0.00000000       0.00000000       0.00000000       0.00000000       7.06886339
Pm       0.00000000       0.00000000       1.29191919       0.00000000       0.00000000      -7.06886339
2
Properties=species:S:1:pos:R:3:forces:R:3 energy=-49.8433612510972 pbc="F F F"
Pm       0.00000000       0.00000000       0.00000000       0.00000000       0.00000000      -5.20210695
Pm       0.00000000       0.00000000       1.35151515       0.00000000       0.00000000       5.20210695
2
Properties=species:S:1:pos:R:3:forces:R:3 energy=-50.514614176674556 pbc="F F F"
Pm       0.00000000       0.00000000       0.00000000       0.00000000       0.00000000     -17.53189850
Pm       0.00000000       0.00000000       1.41111111       0.00000000       0.00000000      17.53189850
2
Properties=species:S:1:pos:R:3:forces:R:3 energy=-51.86437579110474 pbc="F F F"
Pm       0.00000000       0.00000000       0.00000000       0.00000000       0.00000000     -26.69179916
Pm       0.00000000       0.00000000       1.47070707       0.00000000       0.00000000      26.69179916
2
Properties=species:S:1:pos:R:3:forces:R:3 energy=-53.58102346842322 pbc="F F F"
Pm       0.00000000       0.00000000       0.00000000       0.00000000       0.00000000     -30.20477486
Pm       0.00000000       0.00000000       1.53030303       0.00000000       0.00000000      30.20477486
2
Properties=species:S:1:pos:R:3:forces:R:3 energy=-55.40537521330468 pbc="F F F"
Pm       0.00000000       0.00000000       0.00000000       0.00000000       0.00000000     -30.67816353
Pm       0.00000000       0.00000000       1.58989899       0.00000000       0.00000000      30.67816353
2
Properties=species:S:1:pos:R:3:forces:R:3 energy=-57.20650678822433 pbc="F F F"
Pm       0.00000000       0.00000000       0.00000000       0.00000000       0.00000000     -29.54252434
Pm       0.00000000       0.00000000       1.64949495       0.00000000       0.00000000      29.54252434
2
Properties=species:S:1:pos:R:3:forces:R:3 energy=-58.898232712517334 pbc="F F F"
Pm       0.00000000       0.00000000       0.00000000       0.00000000       0.00000000     -26.96357918
Pm       0.00000000       0.00000000       1.70909091       0.00000000       0.00000000      26.96357918
2
Properties=species:S:1:pos:R:3:forces:R:3 energy=-60.38785201526043 pbc="F F F"
Pm       0.00000000       0.00000000       0.00000000       0.00000000       0.00000000     -22.78856087
Pm       0.00000000       0.00000000       1.76868687       0.00000000       0.00000000      22.78856087
2
Properties=species:S:1:pos:R:3:forces:R:3 energy=-61.59685820138449 pbc="F F F"
Pm       0.00000000       0.00000000       0.00000000       0.00000000       0.00000000     -17.74818420
Pm       0.00000000       0.00000000       1.82828283       0.00000000       0.00000000      17.74818420
2
Properties=species:S:1:pos:R:3:forces:R:3 energy=-62.51162514374631 pbc="F F F"
Pm       0.00000000       0.00000000       0.00000000       0.00000000       0.00000000     -13.10861206
Pm       0.00000000       0.00000000       1.88787879       0.00000000       0.00000000      13.10861206
2
Properties=species:S:1:pos:R:3:forces:R:3 energy=-63.1841967286304 pbc="F F F"
Pm       0.00000000       0.00000000       0.00000000       0.00000000       0.00000000      -9.69599628
Pm       0.00000000       0.00000000       1.94747475       0.00000000       0.00000000       9.69599628
2
Properties=species:S:1:pos:R:3:forces:R:3 energy=-63.69375078397167 pbc="F F F"
Pm       0.00000000       0.00000000       0.00000000       0.00000000       0.00000000      -7.59551382
Pm       0.00000000       0.00000000       2.00707071       0.00000000       0.00000000       7.59551382
2
Properties=species:S:1:pos:R:3:forces:R:3 energy=-64.10689951540861 pbc="F F F"
Pm       0.00000000       0.00000000       0.00000000       0.00000000       0.00000000      -6.36915684
Pm       0.00000000       0.00000000       2.06666667       0.00000000       0.00000000       6.36915684
2
Properties=species:S:1:pos:R:3:forces:R:3 energy=-64.46031356974181 pbc="F F F"
Pm       0.00000000       0.00000000       0.00000000       0.00000000       0.00000000      -5.52518797
Pm       0.00000000       0.00000000       2.12626263       0.00000000       0.00000000       5.52518797
2
Properties=species:S:1:pos:R:3:forces:R:3 energy=-64.76767621854572 pbc="F F F"
Pm       0.00000000       0.00000000       0.00000000       0.00000000       0.00000000      -4.79928493
Pm       0.00000000       0.00000000       2.18585859       0.00000000       0.00000000       4.79928493
2
Properties=species:S:1:pos:R:3:forces:R:3 energy=-65.03309967062665 pbc="F F F"
Pm       0.00000000       0.00000000       0.00000000       0.00000000       0.00000000      -4.11286020
Pm       0.00000000       0.00000000       2.24545455       0.00000000       0.00000000       4.11286020
2
Properties=species:S:1:pos:R:3:forces:R:3 energy=-65.25845305795266 pbc="F F F"
Pm       0.00000000       0.00000000       0.00000000       0.00000000       0.00000000      -3.45451283
Pm       0.00000000       0.00000000       2.30505051       0.00000000       0.00000000       3.45451283
2
Properties=species:S:1:pos:R:3:forces:R:3 energy=-65.44533851219364 pbc="F F F"
Pm       0.00000000       0.00000000       0.00000000       0.00000000       0.00000000      -2.82062984
Pm       0.00000000       0.00000000       2.36464646       0.00000000       0.00000000       2.82062984
2
Properties=species:S:1:pos:R:3:forces:R:3 energy=-65.5950300725442 pbc="F F F"
Pm       0.00000000       0.00000000       0.00000000       0.00000000       0.00000000      -2.20618057
Pm       0.00000000       0.00000000       2.42424242       0.00000000       0.00000000       2.20618057
2
Properties=species:S:1:pos:R:3:forces:R:3 energy=-65.70873311364822 pbc="F F F"
Pm       0.00000000       0.00000000       0.00000000       0.00000000       0.00000000      -1.61414397
Pm       0.00000000       0.00000000       2.48383838       0.00000000       0.00000000       1.61414397
2
Properties=species:S:1:pos:R:3:forces:R:3 energy=-65.78815655018859 pbc="F F F"
Pm       0.00000000       0.00000000       0.00000000       0.00000000       0.00000000      -1.05882120
Pm       0.00000000       0.00000000       2.54343434       0.00000000       0.00000000       1.05882120
2
Properties=species:S:1:pos:R:3:forces:R:3 energy=-65.83601636742289 pbc="F F F"
Pm       0.00000000       0.00000000       0.00000000       0.00000000       0.00000000      -0.55764991
Pm       0.00000000       0.00000000       2.60303030       0.00000000       0.00000000       0.55764991
2
Properties=species:S:1:pos:R:3:forces:R:3 energy=-65.85592118976884 pbc="F F F"
Pm       0.00000000       0.00000000       0.00000000       0.00000000       0.00000000      -0.12162343
Pm       0.00000000       0.00000000       2.66262626       0.00000000       0.00000000       0.12162343
2
Properties=species:S:1:pos:R:3:forces:R:3 energy=-65.85186107335686 pbc="F F F"
Pm       0.00000000       0.00000000       0.00000000       0.00000000       0.00000000       0.24655291
Pm       0.00000000       0.00000000       2.72222222       0.00000000       0.00000000      -0.24655291
2
Properties=species:S:1:pos:R:3:forces:R:3 energy=-65.82786425613608 pbc="F F F"
Pm       0.00000000       0.00000000       0.00000000       0.00000000       0.00000000       0.54745740
Pm       0.00000000       0.00000000       2.78181818       0.00000000       0.00000000      -0.54745740
2
Properties=species:S:1:pos:R:3:forces:R:3 energy=-65.78796657693977 pbc="F F F"
Pm       0.00000000       0.00000000       0.00000000       0.00000000       0.00000000       0.77998251
Pm       0.00000000       0.00000000       2.84141414       0.00000000       0.00000000      -0.77998251
2
Properties=species:S:1:pos:R:3:forces:R:3 energy=-65.7363106987959 pbc="F F F"
Pm       0.00000000       0.00000000       0.00000000       0.00000000       0.00000000       0.94174272
Pm       0.00000000       0.00000000       2.90101010       0.00000000       0.00000000      -0.94174272
2
Properties=species:S:1:pos:R:3:forces:R:3 energy=-65.67710786058421 pbc="F F F"
Pm       0.00000000       0.00000000       0.00000000       0.00000000       0.00000000       1.03387582
Pm       0.00000000       0.00000000       2.96060606       0.00000000       0.00000000      -1.03387582
2
Properties=species:S:1:pos:R:3:forces:R:3 energy=-65.61429474751947 pbc="F F F"
Pm       0.00000000       0.00000000       0.00000000       0.00000000       0.00000000       1.06498933
Pm       0.00000000       0.00000000       3.02020202       0.00000000       0.00000000      -1.06498933
2
Properties=species:S:1:pos:R:3:forces:R:3 energy=-65.55107555958494 pbc="F F F"
Pm       0.00000000       0.00000000       0.00000000       0.00000000       0.00000000       1.05059624
Pm       0.00000000       0.00000000       3.07979798       0.00000000       0.00000000      -1.05059624
2
Properties=species:S:1:pos:R:3:forces:R:3 energy=-65.48960925070627 pbc="F F F"
Pm       0.00000000       0.00000000       0.00000000       0.00000000       0.00000000       1.00903058
Pm       0.00000000       0.00000000       3.13939394       0.00000000       0.00000000      -1.00903058
2
Properties=species:S:1:pos:R:3:forces:R:3 energy=-65.43100191836369 pbc="F F F"
Pm       0.00000000       0.00000000       0.00000000       0.00000000       0.00000000       0.95736837
Pm       0.00000000       0.00000000       3.19898990       0.00000000       0.00000000      -0.95736837
2
Properties=species:S:1:pos:R:3:forces:R:3 energy=-65.37542123183889 pbc="F F F"
Pm       0.00000000       0.00000000       0.00000000       0.00000000       0.00000000       0.90972942
Pm       0.00000000       0.00000000       3.25858586       0.00000000       0.00000000      -0.90972942
2
Properties=species:S:1:pos:R:3:forces:R:3 energy=-65.32225665900346 pbc="F F F"
Pm       0.00000000       0.00000000       0.00000000       0.00000000       0.00000000       0.87787545
Pm       0.00000000       0.00000000       3.31818182       0.00000000       0.00000000      -0.87787545
2
Properties=species:S:1:pos:R:3:forces:R:3 energy=-65.2702643868013 pbc="F F F"
Pm       0.00000000       0.00000000       0.00000000       0.00000000       0.00000000       0.87226123
Pm       0.00000000       0.00000000       3.37777778       0.00000000       0.00000000      -0.87226123
2
Properties=species:S:1:pos:R:3:forces:R:3 energy=-65.2175979116865 pbc="F F F"
Pm       0.00000000       0.00000000       0.00000000       0.00000000       0.00000000       0.90154165
Pm       0.00000000       0.00000000       3.43737374       0.00000000       0.00000000      -0.90154165
2
Properties=species:S:1:pos:R:3:forces:R:3 energy=-65.16202157080345 pbc="F F F"
Pm       0.00000000       0.00000000       0.00000000       0.00000000       0.00000000       0.97002715
Pm       0.00000000       0.00000000       3.49696970       0.00000000       0.00000000      -0.97002715
2
Properties=species:S:1:pos:R:3:forces:R:3 energy=-65.10125393126499 pbc="F F F"
Pm       0.00000000       0.00000000       0.00000000       0.00000000       0.00000000       1.07452130
Pm       0.00000000       0.00000000       3.55656566       0.00000000       0.00000000      -1.07452130
2
Properties=species:S:1:pos:R:3:forces:R:3 energy=-65.03347131435241 pbc="F F F"
Pm       0.00000000       0.00000000       0.00000000       0.00000000       0.00000000       1.20273483
Pm       0.00000000       0.00000000       3.61616162       0.00000000       0.00000000      -1.20273483
2
Properties=species:S:1:pos:R:3:forces:R:3 energy=-64.95781894277421 pbc="F F F"
Pm       0.00000000       0.00000000       0.00000000       0.00000000       0.00000000       1.33461750
Pm       0.00000000       0.00000000       3.67575758       0.00000000       0.00000000      -1.33461750
2
Properties=species:S:1:pos:R:3:forces:R:3 energy=-64.87480009364019 pbc="F F F"
Pm       0.00000000       0.00000000       0.00000000       0.00000000       0.00000000       1.44616008
Pm       0.00000000       0.00000000       3.73535354       0.00000000       0.00000000      -1.44616008
2
Properties=species:S:1:pos:R:3:forces:R:3 energy=-64.78631418841337 pbc="F F F"
Pm       0.00000000       0.00000000       0.00000000       0.00000000       0.00000000       1.51444674
Pm       0.00000000       0.00000000       3.79494949       0.00000000       0.00000000      -1.51444674
2
Properties=species:S:1:pos:R:3:forces:R:3 energy=-64.69548897474064 pbc="F F F"
Pm       0.00000000       0.00000000       0.00000000       0.00000000       0.00000000       1.52267861
Pm       0.00000000       0.00000000       3.85454545       0.00000000       0.00000000      -1.52267861
2
Properties=species:S:1:pos:R:3:forces:R:3 energy=-64.60615409506228 pbc="F F F"
Pm       0.00000000       0.00000000       0.00000000       0.00000000       0.00000000       1.46433413
Pm       0.00000000       0.00000000       3.91414141       0.00000000       0.00000000      -1.46433413
2
Properties=species:S:1:pos:R:3:forces:R:3 energy=-64.52216205149179 pbc="F F F"
Pm       0.00000000       0.00000000       0.00000000       0.00000000       0.00000000       1.34528351
Pm       0.00000000       0.00000000       3.97373737       0.00000000       0.00000000      -1.34528351
2
Properties=species:S:1:pos:R:3:forces:R:3 energy=-64.4466786942992 pbc="F F F"
Pm       0.00000000       0.00000000       0.00000000       0.00000000       0.00000000       1.18263316
Pm       0.00000000       0.00000000       4.03333333       0.00000000       0.00000000      -1.18263316
2
Properties=species:S:1:pos:R:3:forces:R:3 energy=-64.38160338792669 pbc="F F F"
Pm       0.00000000       0.00000000       0.00000000       0.00000000       0.00000000       1.00001621
Pm       0.00000000       0.00000000       4.09292929       0.00000000       0.00000000      -1.00001621
2
Properties=species:S:1:pos:R:3:forces:R:3 energy=-64.32740114213422 pbc="F F F"
Pm       0.00000000       0.00000000       0.00000000       0.00000000       0.00000000       0.82130903
Pm       0.00000000       0.00000000       4.15252525       0.00000000       0.00000000      -0.82130903
2
Properties=species:S:1:pos:R:3:forces:R:3 energy=-64.28325521889698 pbc="F F F"
Pm       0.00000000       0.00000000       0.00000000       0.00000000       0.00000000       0.66527212
Pm       0.00000000       0.00000000       4.21212121       0.00000000       0.00000000      -0.66527212
2
Properties=species:S:1:pos:R:3:forces:R:3 energy=-64.24743334967862 pbc="F F F"
Pm       0.00000000       0.00000000       0.00000000       0.00000000       0.00000000       0.54299212
Pm       0.00000000       0.00000000       4.27171717       0.00000000       0.00000000      -0.54299212
2
Properties=species:S:1:pos:R:3:forces:R:3 energy=-64.21779125963114 pbc="F F F"
Pm       0.00000000       0.00000000       0.00000000       0.00000000       0.00000000       0.45801592
Pm       0.00000000       0.00000000       4.33131313       0.00000000       0.00000000      -0.45801592
2
Properties=species:S:1:pos:R:3:forces:R:3 energy=-64.19214651426263 pbc="F F F"
Pm       0.00000000       0.00000000       0.00000000       0.00000000       0.00000000       0.40803719
Pm       0.00000000       0.00000000       4.39090909       0.00000000       0.00000000      -0.40803719
2
Properties=species:S:1:pos:R:3:forces:R:3 energy=-64.1685760784952 pbc="F F F"
Pm       0.00000000       0.00000000       0.00000000       0.00000000       0.00000000       0.38705605
Pm       0.00000000       0.00000000       4.45050505       0.00000000       0.00000000      -0.38705605
2
Properties=species:S:1:pos:R:3:forces:R:3 energy=-64.14559178640366 pbc="F F F"
Pm       0.00000000       0.00000000       0.00000000       0.00000000       0.00000000       0.38721383
Pm       0.00000000       0.00000000       4.51010101       0.00000000       0.00000000      -0.38721383
2
Properties=species:S:1:pos:R:3:forces:R:3 energy=-64.12217084612223 pbc="F F F"
Pm       0.00000000       0.00000000       0.00000000       0.00000000       0.00000000       0.40009588
Pm       0.00000000       0.00000000       4.56969697       0.00000000       0.00000000      -0.40009588
2
Properties=species:S:1:pos:R:3:forces:R:3 energy=-64.09780927094893 pbc="F F F"
Pm       0.00000000       0.00000000       0.00000000       0.00000000       0.00000000       0.41750777
Pm       0.00000000       0.00000000       4.62929293       0.00000000       0.00000000      -0.41750777
2
Properties=species:S:1:pos:R:3:forces:R:3 energy=-64.072468470416 pbc="F F F"
Pm       0.00000000       0.00000000       0.00000000       0.00000000       0.00000000       0.43194604
Pm       0.00000000       0.00000000       4.68888889       0.00000000       0.00000000      -0.43194604
2
Properties=species:S:1:pos:R:3:forces:R:3 energy=-64.04651419929455 pbc="F F F"
Pm       0.00000000       0.00000000       0.00000000       0.00000000       0.00000000       0.43703768
Pm       0.00000000       0.00000000       4.74848485       0.00000000       0.00000000      -0.43703768
2
Properties=species:S:1:pos:R:3:forces:R:3 energy=-64.02065555411654 pbc="F F F"
Pm       0.00000000       0.00000000       0.00000000       0.00000000       0.00000000       0.42818350
Pm       0.00000000       0.00000000       4.80808081       0.00000000       0.00000000      -0.42818350
2
Properties=species:S:1:pos:R:3:forces:R:3 energy=-63.99579617463881 pbc="F F F"
Pm       0.00000000       0.00000000       0.00000000       0.00000000       0.00000000       0.40343219
Pm       0.00000000       0.00000000       4.86767677       0.00000000       0.00000000      -0.40343219
2
Properties=species:S:1:pos:R:3:forces:R:3 energy=-63.972854981582046 pbc="F F F"
Pm       0.00000000       0.00000000       0.00000000       0.00000000       0.00000000       0.36433890
Pm       0.00000000       0.00000000       4.92727273       0.00000000       0.00000000      -0.36433890
2
Properties=species:S:1:pos:R:3:forces:R:3 energy=-63.95254490518237 pbc="F F F"
Pm       0.00000000       0.00000000       0.00000000       0.00000000       0.00000000       0.31637946
Pm       0.00000000       0.00000000       4.98686869       0.00000000       0.00000000      -0.31637946
2
Properties=species:S:1:pos:R:3:forces:R:3 energy=-63.93515165809261 pbc="F F F"
Pm       0.00000000       0.00000000       0.00000000       0.00000000       0.00000000       0.26833016
Pm       0.00000000       0.00000000       5.04646465       0.00000000       0.00000000      -0.26833016
2
Properties=species:S:1:pos:R:3:forces:R:3 energy=-63.92036587286339 pbc="F F F"
Pm       0.00000000       0.00000000       0.00000000       0.00000000       0.00000000       0.23027186
Pm       0.00000000       0.00000000       5.10606061       0.00000000       0.00000000      -0.23027186
2
Properties=species:S:1:pos:R:3:forces:R:3 energy=-63.907340341409146 pbc="F F F"
Pm       0.00000000       0.00000000       0.00000000       0.00000000       0.00000000       0.21012630
Pm       0.00000000       0.00000000       5.16565657       0.00000000       0.00000000      -0.21012630
2
Properties=species:S:1:pos:R:3:forces:R:3 energy=-63.89493033460013 pbc="F F F"
Pm       0.00000000       0.00000000       0.00000000       0.00000000       0.00000000       0.20921850
Pm       0.00000000       0.00000000       5.22525253       0.00000000       0.00000000      -0.20921850
2
Properties=species:S:1:pos:R:3:forces:R:3 energy=-63.88218571721671 pbc="F F F"
Pm       0.00000000       0.00000000       0.00000000       0.00000000       0.00000000       0.21900006
Pm       0.00000000       0.00000000       5.28484848       0.00000000       0.00000000      -0.21900006
2
Properties=species:S:1:pos:R:3:forces:R:3 energy=-63.8689002516842 pbc="F F F"
Pm       0.00000000       0.00000000       0.00000000       0.00000000       0.00000000       0.22547509
Pm       0.00000000       0.00000000       5.34444444       0.00000000       0.00000000      -0.22547509
2
Properties=species:S:1:pos:R:3:forces:R:3 energy=-63.855382735243985 pbc="F F F"
Pm       0.00000000       0.00000000       0.00000000       0.00000000       0.00000000       0.22963554
Pm       0.00000000       0.00000000       5.40404040       0.00000000       0.00000000      -0.22963554
2
Properties=species:S:1:pos:R:3:forces:R:3 energy=-63.841007408656864 pbc="F F F"
Pm       0.00000000       0.00000000       0.00000000       0.00000000       0.00000000       0.25897309
Pm       0.00000000       0.00000000       5.46363636       0.00000000       0.00000000      -0.25897309
2
Properties=species:S:1:pos:R:3:forces:R:3 energy=-63.82403468760632 pbc="F F F"
Pm       0.00000000       0.00000000       0.00000000       0.00000000       0.00000000       0.31000775
Pm       0.00000000       0.00000000       5.52323232       0.00000000       0.00000000      -0.31000775
2
Properties=species:S:1:pos:R:3:forces:R:3 energy=-63.804804042135146 pbc="F F F"
Pm       0.00000000       0.00000000       0.00000000       0.00000000       0.00000000       0.32617986
Pm       0.00000000       0.00000000       5.58282828       0.00000000       0.00000000      -0.32617986
2
Properties=species:S:1:pos:R:3:forces:R:3 energy=-63.785978162612956 pbc="F F F"
Pm       0.00000000       0.00000000       0.00000000       0.00000000       0.00000000       0.30402082
Pm       0.00000000       0.00000000       5.64242424       0.00000000       0.00000000      -0.30402082
2
Properties=species:S:1:pos:R:3:forces:R:3 energy=-63.76795007056407 pbc="F F F"
Pm       0.00000000       0.00000000       0.00000000       0.00000000       0.00000000       0.31140813
Pm       0.00000000       0.00000000       5.70202020       0.00000000       0.00000000      -0.31140813
2
Properties=species:S:1:pos:R:3:forces:R:3 energy=-63.74766054984384 pbc="F F F"
Pm       0.00000000       0.00000000       0.00000000       0.00000000       0.00000000       0.37338024
Pm       0.00000000       0.00000000       5.76161616       0.00000000       0.00000000      -0.37338024
2
Properties=species:S:1:pos:R:3:forces:R:3 energy=-63.72464445130819 pbc="F F F"
Pm       0.00000000       0.00000000       0.00000000       0.00000000       0.00000000       0.37624270
Pm       0.00000000       0.00000000       5.82121212       0.00000000       0.00000000      -0.37624270
2
Properties=species:S:1:pos:R:3:forces:R:3 energy=-63.70573803557496 pbc="F F F"
Pm       0.00000000       0.00000000       0.00000000       0.00000000       0.00000000       0.24253292
Pm       0.00000000       0.00000000       5.88080808       0.00000000       0.00000000      -0.24253292
2
Properties=species:S:1:pos:R:3:forces:R:3 energy=-63.69632423963154 pbc="F F F"
Pm       0.00000000       0.00000000       0.00000000       0.00000000       0.00000000       0.07729112
Pm       0.00000000       0.00000000       5.94040404       0.00000000       0.00000000      -0.07729112
2
Properties=species:S:1:pos:R:3:forces:R:3 energy=-63.69448855745609 pbc="F F F"
Pm       0.00000000       0.00000000       0.00000000       0.00000000       0.00000000       0.00786583
Pm       0.00000000       0.00000000       6.00000000       0.00000000       0.00000000      -0.00786583
