2
Properties=species:S:1:pos:R:3:forces:R:3 energy=-551068.2291439397 pbc="F F F"
Pr       0.00000000       0.00000000       0.00000000       0.00000000       0.00000000 -182671.53125000
Pr       0.00000000       0.00000000       0.18000000       0.00000000       0.00000000  182671.53125000
2
Properties=species:S:1:pos:R:3:forces:R:3 energy=-557318.1666439397 pbc="F F F"
Pr       0.00000000       0.00000000       0.00000000       0.00000000       0.00000000  -54593.85546875
Pr       0.00000000       0.00000000       0.23878788       0.00000000       0.00000000   54593.85546875
2
Properties=species:S:1:pos:R:3:forces:R:3 energy=-558879.1666439397 pbc="F F F"
Pr       0.00000000       0.00000000       0.00000000       0.00000000       0.00000000   -2946.81762695
Pr       0.00000000       0.00000000       0.29757576       0.00000000       0.00000000    2946.81762695
2
Properties=species:S:1:pos:R:3:forces:R:3 energy=-557692.6666439397 pbc="F F F"
Pr       0.00000000       0.00000000       0.00000000       0.00000000       0.00000000   46451.31640625
Pr       0.00000000       0.00000000       0.35636364       0.00000000       0.00000000  -46451.31640625
2
Properties=species:S:1:pos:R:3:forces:R:3 energy=-552610.3541439397 pbc="F F F"
Pr       0.00000000       0.00000000       0.00000000       0.00000000       0.00000000  137532.85937500
Pr       0.00000000       0.00000000       0.41515152       0.00000000       0.00000000 -137532.85937500
2
Properties=species:S:1:pos:R:3:forces:R:3 energy=-502129.94789393654 pbc="F F F"
Pr       0.00000000       0.00000000       0.00000000       0.00000000       0.00000000 1203014.25000000
Pr       0.00000000       0.00000000       0.47393939       0.00000000       0.00000000 -1203014.25000000
2
Properties=species:S:1:pos:R:3:forces:R:3 energy=-420569.66664393654 pbc="F F F"
Pr       0.00000000       0.00000000       0.00000000       0.00000000       0.00000000 1559370.50000000
Pr       0.00000000       0.00000000       0.53272727       0.00000000       0.00000000 -1559370.50000000
2
Properties=species:S:1:pos:R:3:forces:R:3 energy=-321396.79164393333 pbc="F F F"
Pr       0.00000000       0.00000000       0.00000000       0.00000000       0.00000000 1781952.62500000
Pr       0.00000000       0.00000000       0.59151515       0.00000000       0.00000000 -1781952.62500000
2
Properties=species:S:1:pos:R:3:forces:R:3 energy=-220564.22914392385 pbc="F F F"
Pr       0.00000000       0.00000000       0.00000000       0.00000000       0.00000000 1658980.75000000
Pr       0.00000000       0.00000000       0.65030303       0.00000000       0.00000000 -1658980.75000000
2
Properties=species:S:1:pos:R:3:forces:R:3 energy=-125613.73695641753 pbc="F F F"
Pr       0.00000000       0.00000000       0.00000000       0.00000000       0.00000000 1532353.87500000
Pr       0.00000000       0.00000000       0.70909091       0.00000000       0.00000000 -1532353.87500000
2
Properties=species:S:1:pos:R:3:forces:R:3 energy=-53495.01039390485 pbc="F F F"
Pr       0.00000000       0.00000000       0.00000000       0.00000000       0.00000000  902955.00000000
Pr       0.00000000       0.00000000       0.76787879       0.00000000       0.00000000 -902955.00000000
2
Properties=species:S:1:pos:R:3:forces:R:3 energy=-8944.034807948346 pbc="F F F"
Pr       0.00000000       0.00000000       0.00000000       0.00000000       0.00000000  399218.59375000
Pr       0.00000000       0.00000000       0.82666667       0.00000000       0.00000000 -399218.59375000
2
Properties=species:S:1:pos:R:3:forces:R:3 energy=996.0830509637153 pbc="F F F"
Pr       0.00000000       0.00000000       0.00000000       0.00000000       0.00000000    8459.30175781
Pr       0.00000000       0.00000000       0.88545455       0.00000000       0.00000000   -8459.30175781
2
Properties=species:S:1:pos:R:3:forces:R:3 energy=5.930249488057262 pbc="F F F"
Pr       0.00000000       0.00000000       0.00000000       0.00000000       0.00000000  -10863.02148438
Pr       0.00000000       0.00000000       0.94424242       0.00000000       0.00000000   10863.02148438
2
Properties=species:S:1:pos:R:3:forces:R:3 energy=-44.7355867954861 pbc="F F F"
Pr       0.00000000       0.00000000       0.00000000       0.00000000       0.00000000    2875.96923828
Pr       0.00000000       0.00000000       1.00303030       0.00000000       0.00000000   -2875.96923828
2
Properties=species:S:1:pos:R:3:forces:R:3 energy=1.5787557666496406 pbc="F F F"
Pr       0.00000000       0.00000000       0.00000000       0.00000000       0.00000000     -42.72450256
Pr       0.00000000       0.00000000       1.06181818       0.00000000       0.00000000      42.72450256
2
Properties=species:S:1:pos:R:3:forces:R:3 energy=0.36922979333694195 pbc="F F F"
Pr       0.00000000       0.00000000       0.00000000       0.00000000       0.00000000     -46.02133560
Pr       0.00000000       0.00000000       1.12060606       0.00000000       0.00000000      46.02133560
2
Properties=species:S:1:pos:R:3:forces:R:3 energy=-3.3482574246587165 pbc="F F F"
Pr       0.00000000       0.00000000       0.00000000       0.00000000       0.00000000     -75.08045197
Pr       0.00000000       0.00000000       1.17939394       0.00000000       0.00000000      75.08045197
2
Properties=species:S:1:pos:R:3:forces:R:3 energy=-8.139860364149982 pbc="F F F"
Pr       0.00000000       0.00000000       0.00000000       0.00000000       0.00000000     -86.26050568
Pr       0.00000000       0.00000000       1.23818182       0.00000000       0.00000000      86.26050568
2
Properties=species:S:1:pos:R:3:forces:R:3 energy=-13.241670629402918 pbc="F F F"
Pr       0.00000000       0.00000000       0.00000000       0.00000000       0.00000000     -85.13189697
Pr       0.00000000       0.00000000       1.29696970       0.00000000       0.00000000      85.13189697
2
Properties=species:S:1:pos:R:3:forces:R:3 energy=-18.025632638404296 pbc="F F F"
Pr       0.00000000       0.00000000       0.00000000       0.00000000       0.00000000     -77.87384033
Pr       0.00000000       0.00000000       1.35575758       0.00000000       0.00000000      77.87384033
2
Properties=species:S:1:pos:R:3:forces:R:3 energy=-22.504792649466903 pbc="F F F"
Pr       0.00000000       0.00000000       0.00000000       0.00000000       0.00000000     -75.45491791
Pr       0.00000000       0.00000000       1.41454545       0.00000000       0.00000000      75.45491791
2
Properties=species:S:1:pos:R:3:forces:R:3 energy=-26.947875085112134 pbc="F F F"
Pr       0.00000000       0.00000000       0.00000000       0.00000000       0.00000000     -75.66605377
Pr       0.00000000       0.00000000       1.47333333       0.00000000       0.00000000      75.66605377
2
Properties=species:S:1:pos:R:3:forces:R:3 energy=-31.380917161526504 pbc="F F F"
Pr       0.00000000       0.00000000       0.00000000       0.00000000       0.00000000     -74.96022797
Pr       0.00000000       0.00000000       1.53212121       0.00000000       0.00000000      74.96022797
2
Properties=species:S:1:pos:R:3:forces:R:3 energy=-35.738342296854896 pbc="F F F"
Pr       0.00000000       0.00000000       0.00000000       0.00000000       0.00000000     -73.05382538
Pr       0.00000000       0.00000000       1.59090909       0.00000000       0.00000000      73.05382538
2
Properties=species:S:1:pos:R:3:forces:R:3 energy=-39.93799143923544 pbc="F F F"
Pr       0.00000000       0.00000000       0.00000000       0.00000000       0.00000000     -69.50424194
Pr       0.00000000       0.00000000       1.64969697       0.00000000       0.00000000      69.50424194
2
Properties=species:S:1:pos:R:3:forces:R:3 energy=-43.868238901442304 pbc="F F F"
Pr       0.00000000       0.00000000       0.00000000       0.00000000       0.00000000     -63.79919815
Pr       0.00000000       0.00000000       1.70848485       0.00000000       0.00000000      63.79919815
2
Properties=species:S:1:pos:R:3:forces:R:3 energy=-47.385411711849855 pbc="F F F"
Pr       0.00000000       0.00000000       0.00000000       0.00000000       0.00000000     -55.36520004
Pr       0.00000000       0.00000000       1.76727273       0.00000000       0.00000000      55.36520004
2
Properties=species:S:1:pos:R:3:forces:R:3 energy=-50.32516887855078 pbc="F F F"
Pr       0.00000000       0.00000000       0.00000000       0.00000000       0.00000000     -44.31910324
Pr       0.00000000       0.00000000       1.82606061       0.00000000       0.00000000      44.31910324
2
Properties=species:S:1:pos:R:3:forces:R:3 energy=-52.58277404174184 pbc="F F F"
Pr       0.00000000       0.00000000       0.00000000       0.00000000       0.00000000     -32.60554504
Pr       0.00000000       0.00000000       1.88484848       0.00000000       0.00000000      32.60554504
2
Properties=species:S:1:pos:R:3:forces:R:3 energy=-54.19599649370743 pbc="F F F"
Pr       0.00000000       0.00000000       0.00000000       0.00000000       0.00000000     -22.73464012
Pr       0.00000000       0.00000000       1.94363636       0.00000000       0.00000000      22.73464012
2
Properties=species:S:1:pos:R:3:forces:R:3 energy=-55.31510094275955 pbc="F F F"
Pr       0.00000000       0.00000000       0.00000000       0.00000000       0.00000000     -15.83289719
Pr       0.00000000       0.00000000       2.00242424       0.00000000       0.00000000      15.83289719
2
Properties=species:S:1:pos:R:3:forces:R:3 energy=-56.10825065044488 pbc="F F F"
Pr       0.00000000       0.00000000       0.00000000       0.00000000       0.00000000     -11.50455475
Pr       0.00000000       0.00000000       2.06121212       0.00000000       0.00000000      11.50455475
2
Properties=species:S:1:pos:R:3:forces:R:3 energy=-56.70100633924761 pbc="F F F"
Pr       0.00000000       0.00000000       0.00000000       0.00000000       0.00000000      -8.88550663
Pr       0.00000000       0.00000000       2.12000000       0.00000000       0.00000000       8.88550663
2
Properties=species:S:1:pos:R:3:forces:R:3 energy=-57.17409839988283 pbc="F F F"
Pr       0.00000000       0.00000000       0.00000000       0.00000000       0.00000000      -7.34845448
Pr       0.00000000       0.00000000       2.17878788       0.00000000       0.00000000       7.34845448
2
Properties=species:S:1:pos:R:3:forces:R:3 energy=-57.57665245621991 pbc="F F F"
Pr       0.00000000       0.00000000       0.00000000       0.00000000       0.00000000      -6.40599632
Pr       0.00000000       0.00000000       2.23757576       0.00000000       0.00000000       6.40599632
2
Properties=species:S:1:pos:R:3:forces:R:3 energy=-57.930049835747546 pbc="F F F"
Pr       0.00000000       0.00000000       0.00000000       0.00000000       0.00000000      -5.60946846
Pr       0.00000000       0.00000000       2.29636364       0.00000000       0.00000000       5.60946846
2
Properties=species:S:1:pos:R:3:forces:R:3 energy=-58.232955337401954 pbc="F F F"
Pr       0.00000000       0.00000000       0.00000000       0.00000000       0.00000000      -4.65554810
Pr       0.00000000       0.00000000       2.35515152       0.00000000       0.00000000       4.65554810
2
Properties=species:S:1:pos:R:3:forces:R:3 energy=-58.47262399109442 pbc="F F F"
Pr       0.00000000       0.00000000       0.00000000       0.00000000       0.00000000      -3.46326494
Pr       0.00000000       0.00000000       2.41393939       0.00000000       0.00000000       3.46326494
2
Properties=species:S:1:pos:R:3:forces:R:3 energy=-58.637661229568266 pbc="F F F"
Pr       0.00000000       0.00000000       0.00000000       0.00000000       0.00000000      -2.14718485
Pr       0.00000000       0.00000000       2.47272727       0.00000000       0.00000000       2.14718485
2
Properties=species:S:1:pos:R:3:forces:R:3 energy=-58.726827203352244 pbc="F F F"
Pr       0.00000000       0.00000000       0.00000000       0.00000000       0.00000000      -0.91979569
Pr       0.00000000       0.00000000       2.53151515       0.00000000       0.00000000       0.91979569
2
Properties=species:S:1:pos:R:3:forces:R:3 energy=-58.75157736280383 pbc="F F F"
Pr       0.00000000       0.00000000       0.00000000       0.00000000       0.00000000       0.01646599
Pr       0.00000000       0.00000000       2.59030303       0.00000000       0.00000000      -0.01646599
2
Properties=species:S:1:pos:R:3:forces:R:3 energy=-58.732774201737534 pbc="F F F"
Pr       0.00000000       0.00000000       0.00000000       0.00000000       0.00000000       0.55525553
Pr       0.00000000       0.00000000       2.64909091       0.00000000       0.00000000      -0.55525553
2
Properties=species:S:1:pos:R:3:forces:R:3 energy=-58.69359572887244 pbc="F F F"
Pr       0.00000000       0.00000000       0.00000000       0.00000000       0.00000000       0.72504508
Pr       0.00000000       0.00000000       2.70787879       0.00000000       0.00000000      -0.72504508
2
Properties=species:S:1:pos:R:3:forces:R:3 energy=-58.65221505427605 pbc="F F F"
Pr       0.00000000       0.00000000       0.00000000       0.00000000       0.00000000       0.65632862
Pr       0.00000000       0.00000000       2.76666667       0.00000000       0.00000000      -0.65632862
2
Properties=species:S:1:pos:R:3:forces:R:3 energy=-58.61807726067208 pbc="F F F"
Pr       0.00000000       0.00000000       0.00000000       0.00000000       0.00000000       0.50166631
Pr       0.00000000       0.00000000       2.82545455       0.00000000       0.00000000      -0.50166631
2
Properties=species:S:1:pos:R:3:forces:R:3 energy=-58.59275387662109 pbc="F F F"
Pr       0.00000000       0.00000000       0.00000000       0.00000000       0.00000000       0.36891663
Pr       0.00000000       0.00000000       2.88424242       0.00000000       0.00000000      -0.36891663
2
Properties=species:S:1:pos:R:3:forces:R:3 energy=-58.57337995993847 pbc="F F F"
Pr       0.00000000       0.00000000       0.00000000       0.00000000       0.00000000       0.30204117
Pr       0.00000000       0.00000000       2.94303030       0.00000000       0.00000000      -0.30204117
2
Properties=species:S:1:pos:R:3:forces:R:3 energy=-58.555972798784325 pbc="F F F"
Pr       0.00000000       0.00000000       0.00000000       0.00000000       0.00000000       0.29936096
Pr       0.00000000       0.00000000       3.00181818       0.00000000       0.00000000      -0.29936096
2
Properties=species:S:1:pos:R:3:forces:R:3 energy=-58.53727834234949 pbc="F F F"
Pr       0.00000000       0.00000000       0.00000000       0.00000000       0.00000000       0.34296015
Pr       0.00000000       0.00000000       3.06060606       0.00000000       0.00000000      -0.34296015
2
Properties=species:S:1:pos:R:3:forces:R:3 energy=-58.51499613177781 pbc="F F F"
Pr       0.00000000       0.00000000       0.00000000       0.00000000       0.00000000       0.42034969
Pr       0.00000000       0.00000000       3.11939394       0.00000000       0.00000000      -0.42034969
2
Properties=species:S:1:pos:R:3:forces:R:3 energy=-58.48719964041201 pbc="F F F"
Pr       0.00000000       0.00000000       0.00000000       0.00000000       0.00000000       0.53139025
Pr       0.00000000       0.00000000       3.17818182       0.00000000       0.00000000      -0.53139025
2
Properties=species:S:1:pos:R:3:forces:R:3 energy=-58.451740975111825 pbc="F F F"
Pr       0.00000000       0.00000000       0.00000000       0.00000000       0.00000000       0.68185008
Pr       0.00000000       0.00000000       3.23696970       0.00000000       0.00000000      -0.68185008
2
Properties=species:S:1:pos:R:3:forces:R:3 energy=-58.406262462897764 pbc="F F F"
Pr       0.00000000       0.00000000       0.00000000       0.00000000       0.00000000       0.87107229
Pr       0.00000000       0.00000000       3.29575758       0.00000000       0.00000000      -0.87107229
2
Properties=species:S:1:pos:R:3:forces:R:3 energy=-58.34886037342931 pbc="F F F"
Pr       0.00000000       0.00000000       0.00000000       0.00000000       0.00000000       1.08351815
Pr       0.00000000       0.00000000       3.35454545       0.00000000       0.00000000      -1.08351815
2
Properties=species:S:1:pos:R:3:forces:R:3 energy=-58.278973737132155 pbc="F F F"
Pr       0.00000000       0.00000000       0.00000000       0.00000000       0.00000000       1.29045844
Pr       0.00000000       0.00000000       3.41333333       0.00000000       0.00000000      -1.29045844
2
Properties=species:S:1:pos:R:3:forces:R:3 energy=-58.19786497804674 pbc="F F F"
Pr       0.00000000       0.00000000       0.00000000       0.00000000       0.00000000       1.46025920
Pr       0.00000000       0.00000000       3.47212121       0.00000000       0.00000000      -1.46025920
2
Properties=species:S:1:pos:R:3:forces:R:3 energy=-58.10847116914528 pbc="F F F"
Pr       0.00000000       0.00000000       0.00000000       0.00000000       0.00000000       1.56987083
Pr       0.00000000       0.00000000       3.53090909       0.00000000       0.00000000      -1.56987083
2
Properties=species:S:1:pos:R:3:forces:R:3 energy=-58.01464488540118 pbc="F F F"
Pr       0.00000000       0.00000000       0.00000000       0.00000000       0.00000000       1.61082828
Pr       0.00000000       0.00000000       3.58969697       0.00000000       0.00000000      -1.61082828
2
Properties=species:S:1:pos:R:3:forces:R:3 energy=-57.92032644299278 pbc="F F F"
Pr       0.00000000       0.00000000       0.00000000       0.00000000       0.00000000       1.58839166
Pr       0.00000000       0.00000000       3.64848485       0.00000000       0.00000000      -1.58839166
2
Properties=species:S:1:pos:R:3:forces:R:3 energy=-57.82885340425221 pbc="F F F"
Pr       0.00000000       0.00000000       0.00000000       0.00000000       0.00000000       1.51683366
Pr       0.00000000       0.00000000       3.70727273       0.00000000       0.00000000      -1.51683366
2
Properties=species:S:1:pos:R:3:forces:R:3 energy=-57.742590593212334 pbc="F F F"
Pr       0.00000000       0.00000000       0.00000000       0.00000000       0.00000000       1.41423488
Pr       0.00000000       0.00000000       3.76606061       0.00000000       0.00000000      -1.41423488
2
Properties=species:S:1:pos:R:3:forces:R:3 energy=-57.662830872296176 pbc="F F F"
Pr       0.00000000       0.00000000       0.00000000       0.00000000       0.00000000       1.29826915
Pr       0.00000000       0.00000000       3.82484848       0.00000000       0.00000000      -1.29826915
2
Properties=species:S:1:pos:R:3:forces:R:3 energy=-57.58992868523158 pbc="F F F"
Pr       0.00000000       0.00000000       0.00000000       0.00000000       0.00000000       1.18280506
Pr       0.00000000       0.00000000       3.88363636       0.00000000       0.00000000      -1.18280506
2
Properties=species:S:1:pos:R:3:forces:R:3 energy=-57.52359378557284 pbc="F F F"
Pr       0.00000000       0.00000000       0.00000000       0.00000000       0.00000000       1.07569444
Pr       0.00000000       0.00000000       3.94242424       0.00000000       0.00000000      -1.07569444
2
Properties=species:S:1:pos:R:3:forces:R:3 energy=-57.46325741596002 pbc="F F F"
Pr       0.00000000       0.00000000       0.00000000       0.00000000       0.00000000       0.97862387
Pr       0.00000000       0.00000000       4.00121212       0.00000000       0.00000000      -0.97862387
2
Properties=species:S:1:pos:R:3:forces:R:3 energy=-57.40837372939153 pbc="F F F"
Pr       0.00000000       0.00000000       0.00000000       0.00000000       0.00000000       0.88962018
Pr       0.00000000       0.00000000       4.06000000       0.00000000       0.00000000      -0.88962018
2
Properties=species:S:1:pos:R:3:forces:R:3 energy=-57.35854178667669 pbc="F F F"
Pr       0.00000000       0.00000000       0.00000000       0.00000000       0.00000000       0.80675399
Pr       0.00000000       0.00000000       4.11878788       0.00000000       0.00000000      -0.80675399
2
Properties=species:S:1:pos:R:3:forces:R:3 energy=-57.31339116620298 pbc="F F F"
Pr       0.00000000       0.00000000       0.00000000       0.00000000       0.00000000       0.73054147
Pr       0.00000000       0.00000000       4.17757576       0.00000000       0.00000000      -0.73054147
2
Properties=species:S:1:pos:R:3:forces:R:3 energy=-57.272456053583646 pbc="F F F"
Pr       0.00000000       0.00000000       0.00000000       0.00000000       0.00000000       0.66397315
Pr       0.00000000       0.00000000       4.23636364       0.00000000       0.00000000      -0.66397315
2
Properties=species:S:1:pos:R:3:forces:R:3 energy=-57.235057020888526 pbc="F F F"
Pr       0.00000000       0.00000000       0.00000000       0.00000000       0.00000000       0.61102754
Pr       0.00000000       0.00000000       4.29515152       0.00000000       0.00000000      -0.61102754
2
Properties=species:S:1:pos:R:3:forces:R:3 energy=-57.200278097278776 pbc="F F F"
Pr       0.00000000       0.00000000       0.00000000       0.00000000       0.00000000       0.57533205
Pr       0.00000000       0.00000000       4.35393939       0.00000000       0.00000000      -0.57533205
2
Properties=species:S:1:pos:R:3:forces:R:3 energy=-57.16702019694331 pbc="F F F"
Pr       0.00000000       0.00000000       0.00000000       0.00000000       0.00000000       0.55963433
Pr       0.00000000       0.00000000       4.41272727       0.00000000       0.00000000      -0.55963433
2
Properties=species:S:1:pos:R:3:forces:R:3 energy=-57.13404691130517 pbc="F F F"
Pr       0.00000000       0.00000000       0.00000000       0.00000000       0.00000000       0.56586736
Pr       0.00000000       0.00000000       4.47151515       0.00000000       0.00000000      -0.56586736
2
Properties=species:S:1:pos:R:3:forces:R:3 energy=-57.10003788944057 pbc="F F F"
Pr       0.00000000       0.00000000       0.00000000       0.00000000       0.00000000       0.59500670
Pr       0.00000000       0.00000000       4.53030303       0.00000000       0.00000000      -0.59500670
2
Properties=species:S:1:pos:R:3:forces:R:3 energy=-57.06365369426814 pbc="F F F"
Pr       0.00000000       0.00000000       0.00000000       0.00000000       0.00000000       0.64632672
Pr       0.00000000       0.00000000       4.58909091       0.00000000       0.00000000      -0.64632672
2
Properties=species:S:1:pos:R:3:forces:R:3 energy=-57.023680789555385 pbc="F F F"
Pr       0.00000000       0.00000000       0.00000000       0.00000000       0.00000000       0.71614677
Pr       0.00000000       0.00000000       4.64787879       0.00000000       0.00000000      -0.71614677
2
Properties=species:S:1:pos:R:3:forces:R:3 energy=-56.97923749872497 pbc="F F F"
Pr       0.00000000       0.00000000       0.00000000       0.00000000       0.00000000       0.79669827
Pr       0.00000000       0.00000000       4.70666667       0.00000000       0.00000000      -0.79669827
2
Properties=species:S:1:pos:R:3:forces:R:3 energy=-56.93002579388121 pbc="F F F"
Pr       0.00000000       0.00000000       0.00000000       0.00000000       0.00000000       0.87621415
Pr       0.00000000       0.00000000       4.76545455       0.00000000       0.00000000      -0.87621415
2
Properties=species:S:1:pos:R:3:forces:R:3 energy=-56.8765029698583 pbc="F F F"
Pr       0.00000000       0.00000000       0.00000000       0.00000000       0.00000000       0.94101518
Pr       0.00000000       0.00000000       4.82424242       0.00000000       0.00000000      -0.94101518
2
Properties=species:S:1:pos:R:3:forces:R:3 energy=-56.81991215229499 pbc="F F F"
Pr       0.00000000       0.00000000       0.00000000       0.00000000       0.00000000       0.97936887
Pr       0.00000000       0.00000000       4.88303030       0.00000000       0.00000000      -0.97936887
2
Properties=species:S:1:pos:R:3:forces:R:3 energy=-56.76198475441565 pbc="F F F"
Pr       0.00000000       0.00000000       0.00000000       0.00000000       0.00000000       0.98594123
Pr       0.00000000       0.00000000       4.94181818       0.00000000       0.00000000      -0.98594123
2
Properties=species:S:1:pos:R:3:forces:R:3 energy=-56.70453994648871 pbc="F F F"
Pr       0.00000000       0.00000000       0.00000000       0.00000000       0.00000000       0.96458226
Pr       0.00000000       0.00000000       5.00060606       0.00000000       0.00000000      -0.96458226
2
Properties=species:S:1:pos:R:3:forces:R:3 energy=-56.64887811262576 pbc="F F F"
Pr       0.00000000       0.00000000       0.00000000       0.00000000       0.00000000       0.92752284
Pr       0.00000000       0.00000000       5.05939394       0.00000000       0.00000000      -0.92752284
2
Properties=species:S:1:pos:R:3:forces:R:3 energy=-56.59548331073047 pbc="F F F"
Pr       0.00000000       0.00000000       0.00000000       0.00000000       0.00000000       0.89025313
Pr       0.00000000       0.00000000       5.11818182       0.00000000       0.00000000      -0.89025313
2
Properties=species:S:1:pos:R:3:forces:R:3 energy=-56.544000390650666 pbc="F F F"
Pr       0.00000000       0.00000000       0.00000000       0.00000000       0.00000000       0.86330891
Pr       0.00000000       0.00000000       5.17696970       0.00000000       0.00000000      -0.86330891
2
Properties=species:S:1:pos:R:3:forces:R:3 energy=-56.49380721143943 pbc="F F F"
Pr       0.00000000       0.00000000       0.00000000       0.00000000       0.00000000       0.84483290
Pr       0.00000000       0.00000000       5.23575758       0.00000000       0.00000000      -0.84483290
2
Properties=species:S:1:pos:R:3:forces:R:3 energy=-56.444792826926026 pbc="F F F"
Pr       0.00000000       0.00000000       0.00000000       0.00000000       0.00000000       0.82010508
Pr       0.00000000       0.00000000       5.29454545       0.00000000       0.00000000      -0.82010508
2
Properties=species:S:1:pos:R:3:forces:R:3 energy=-56.39777712458986 pbc="F F F"
Pr       0.00000000       0.00000000       0.00000000       0.00000000       0.00000000       0.77626127
Pr       0.00000000       0.00000000       5.35333333       0.00000000       0.00000000      -0.77626127
2
Properties=species:S:1:pos:R:3:forces:R:3 energy=-56.35359528554543 pbc="F F F"
Pr       0.00000000       0.00000000       0.00000000       0.00000000       0.00000000       0.73004693
Pr       0.00000000       0.00000000       5.41212121       0.00000000       0.00000000      -0.73004693
2
Properties=species:S:1:pos:R:3:forces:R:3 energy=-56.31120953157064 pbc="F F F"
Pr       0.00000000       0.00000000       0.00000000       0.00000000       0.00000000       0.71818858
Pr       0.00000000       0.00000000       5.47090909       0.00000000       0.00000000      -0.71818858
2
Properties=species:S:1:pos:R:3:forces:R:3 energy=-56.269036636587366 pbc="F F F"
Pr       0.00000000       0.00000000       0.00000000       0.00000000       0.00000000       0.70984852
Pr       0.00000000       0.00000000       5.52969697       0.00000000       0.00000000      -0.70984852
2
Properties=species:S:1:pos:R:3:forces:R:3 energy=-56.2290639881789 pbc="F F F"
Pr       0.00000000       0.00000000       0.00000000       0.00000000       0.00000000       0.63887125
Pr       0.00000000       0.00000000       5.58848485       0.00000000       0.00000000      -0.63887125
2
Properties=species:S:1:pos:R:3:forces:R:3 energy=-56.194663772392424 pbc="F F F"
Pr       0.00000000       0.00000000       0.00000000       0.00000000       0.00000000       0.53265870
Pr       0.00000000       0.00000000       5.64727273       0.00000000       0.00000000      -0.53265870
2
Properties=species:S:1:pos:R:3:forces:R:3 energy=-56.16569490561773 pbc="F F F"
Pr       0.00000000       0.00000000       0.00000000       0.00000000       0.00000000       0.46216092
Pr       0.00000000       0.00000000       5.70606061       0.00000000       0.00000000      -0.46216092
2
Properties=species:S:1:pos:R:3:forces:R:3 energy=-56.13955589736818 pbc="F F F"
Pr       0.00000000       0.00000000       0.00000000       0.00000000       0.00000000       0.42341575
Pr       0.00000000       0.00000000       5.76484848       0.00000000       0.00000000      -0.42341575
2
Properties=species:S:1:pos:R:3:forces:R:3 energy=-56.117116720367896 pbc="F F F"
Pr       0.00000000       0.00000000       0.00000000       0.00000000       0.00000000       0.32664669
Pr       0.00000000       0.00000000       5.82363636       0.00000000       0.00000000      -0.32664669
2
Properties=species:S:1:pos:R:3:forces:R:3 energy=-56.10232204085442 pbc="F F F"
Pr       0.00000000       0.00000000       0.00000000       0.00000000       0.00000000       0.17658180
Pr       0.00000000       0.00000000       5.88242424       0.00000000       0.00000000      -0.17658180
2
Properties=species:S:1:pos:R:3:forces:R:3 energy=-56.09580167035087 pbc="F F F"
Pr       0.00000000       0.00000000       0.00000000       0.00000000       0.00000000       0.05416426
Pr       0.00000000       0.00000000       5.94121212       0.00000000       0.00000000      -0.05416426
2
Properties=species:S:1:pos:R:3:forces:R:3 energy=-56.09440510607531 pbc="F F F"
Pr       0.00000000       0.00000000       0.00000000       0.00000000       0.00000000       0.00862826
Pr       0.00000000       0.00000000       6.00000000       0.00000000       0.00000000      -0.00862826
