2
Properties=species:S:1:pos:R:3:forces:R:3 energy=-507291.5103939397 pbc="F F F"
Pr       0.00000000       0.00000000       0.00000000       0.00000000       0.00000000 -1345840.00000000
Pr       0.00000000       0.00000000       0.10000000       0.00000000       0.00000000 1345840.00000000
2
Properties=species:S:1:pos:R:3:forces:R:3 energy=-546395.6666439397 pbc="F F F"
Pr       0.00000000       0.00000000       0.00000000       0.00000000       0.00000000 -284429.50000000
Pr       0.00000000       0.00000000       0.15959596       0.00000000       0.00000000  284429.50000000
2
Properties=species:S:1:pos:R:3:forces:R:3 energy=-555990.2916439397 pbc="F F F"
Pr       0.00000000       0.00000000       0.00000000       0.00000000       0.00000000  -82266.67968750
Pr       0.00000000       0.00000000       0.21919192       0.00000000       0.00000000   82266.67968750
2
Properties=species:S:1:pos:R:3:forces:R:3 energy=-558700.4791439397 pbc="F F F"
Pr       0.00000000       0.00000000       0.00000000       0.00000000       0.00000000  -16982.80273438
Pr       0.00000000       0.00000000       0.27878788       0.00000000       0.00000000   16982.80273438
2
Properties=species:S:1:pos:R:3:forces:R:3 energy=-558372.7291439397 pbc="F F F"
Pr       0.00000000       0.00000000       0.00000000       0.00000000       0.00000000   29003.54882812
Pr       0.00000000       0.00000000       0.33838384       0.00000000       0.00000000  -29003.54882812
2
Properties=species:S:1:pos:R:3:forces:R:3 energy=-554676.2291439397 pbc="F F F"
Pr       0.00000000       0.00000000       0.00000000       0.00000000       0.00000000  103742.61718750
Pr       0.00000000       0.00000000       0.39797980       0.00000000       0.00000000 -103742.61718750
2
Properties=species:S:1:pos:R:3:forces:R:3 energy=-520932.51039393654 pbc="F F F"
Pr       0.00000000       0.00000000       0.00000000       0.00000000       0.00000000 1096123.00000000
Pr       0.00000000       0.00000000       0.45757576       0.00000000       0.00000000 -1096123.00000000
2
Properties=species:S:1:pos:R:3:forces:R:3 energy=-444168.22914393654 pbc="F F F"
Pr       0.00000000       0.00000000       0.00000000       0.00000000       0.00000000 1472964.25000000
Pr       0.00000000       0.00000000       0.51717172       0.00000000       0.00000000 -1472964.25000000
2
Properties=species:S:1:pos:R:3:forces:R:3 energy=-347423.63539393654 pbc="F F F"
Pr       0.00000000       0.00000000       0.00000000       0.00000000       0.00000000 1745558.62500000
Pr       0.00000000       0.00000000       0.57676768       0.00000000       0.00000000 -1745558.62500000
2
Properties=species:S:1:pos:R:3:forces:R:3 energy=-243814.01039392702 pbc="F F F"
Pr       0.00000000       0.00000000       0.00000000       0.00000000       0.00000000 1673643.75000000
Pr       0.00000000       0.00000000       0.63636364       0.00000000       0.00000000 -1673643.75000000
2
Properties=species:S:1:pos:R:3:forces:R:3 energy=-146430.8072689207 pbc="F F F"
Pr       0.00000000       0.00000000       0.00000000       0.00000000       0.00000000 1635948.50000000
Pr       0.00000000       0.00000000       0.69595960       0.00000000       0.00000000 -1635948.50000000
2
Properties=species:S:1:pos:R:3:forces:R:3 energy=-65241.82289391119 pbc="F F F"
Pr       0.00000000       0.00000000       0.00000000       0.00000000       0.00000000 1002926.62500000
Pr       0.00000000       0.00000000       0.75555556       0.00000000       0.00000000 -1002926.62500000
2
Properties=species:S:1:pos:R:3:forces:R:3 energy=-14947.052386079682 pbc="F F F"
Pr       0.00000000       0.00000000       0.00000000       0.00000000       0.00000000  674418.06250000
Pr       0.00000000       0.00000000       0.81515152       0.00000000       0.00000000 -674418.06250000
2
Properties=species:S:1:pos:R:3:forces:R:3 energy=633.9387028160162 pbc="F F F"
Pr       0.00000000       0.00000000       0.00000000       0.00000000       0.00000000   70051.10937500
Pr       0.00000000       0.00000000       0.87474747       0.00000000       0.00000000  -70051.10937500
2
Properties=species:S:1:pos:R:3:forces:R:3 energy=150.13813522390913 pbc="F F F"
Pr       0.00000000       0.00000000       0.00000000       0.00000000       0.00000000  -18703.80664062
Pr       0.00000000       0.00000000       0.93434343       0.00000000       0.00000000   18703.80664062
2
Properties=species:S:1:pos:R:3:forces:R:3 energy=-78.46914164824528 pbc="F F F"
Pr       0.00000000       0.00000000       0.00000000       0.00000000       0.00000000    2987.96411133
Pr       0.00000000       0.00000000       0.99393939       0.00000000       0.00000000   -2987.96411133
2
Properties=species:S:1:pos:R:3:forces:R:3 energy=1.470693013005549 pbc="F F F"
Pr       0.00000000       0.00000000       0.00000000       0.00000000       0.00000000      89.92749023
Pr       0.00000000       0.00000000       1.05353535       0.00000000       0.00000000     -89.92749023
2
Properties=species:S:1:pos:R:3:forces:R:3 energy=0.6864828934586221 pbc="F F F"
Pr       0.00000000       0.00000000       0.00000000       0.00000000       0.00000000     -38.54714584
Pr       0.00000000       0.00000000       1.11313131       0.00000000       0.00000000      38.54714584
2
Properties=species:S:1:pos:R:3:forces:R:3 energy=-2.8541129976327397 pbc="F F F"
Pr       0.00000000       0.00000000       0.00000000       0.00000000       0.00000000     -73.10702515
Pr       0.00000000       0.00000000       1.17272727       0.00000000       0.00000000      73.10702515
2
Properties=species:S:1:pos:R:3:forces:R:3 energy=-7.636335599715655 pbc="F F F"
Pr       0.00000000       0.00000000       0.00000000       0.00000000       0.00000000     -85.61979675
Pr       0.00000000       0.00000000       1.23232323       0.00000000       0.00000000      85.61979675
2
Properties=species:S:1:pos:R:3:forces:R:3 energy=-12.810236017062195 pbc="F F F"
Pr       0.00000000       0.00000000       0.00000000       0.00000000       0.00000000     -85.68688202
Pr       0.00000000       0.00000000       1.29191919       0.00000000       0.00000000      85.68688202
2
Properties=species:S:1:pos:R:3:forces:R:3 energy=-17.694383420350682 pbc="F F F"
Pr       0.00000000       0.00000000       0.00000000       0.00000000       0.00000000     -78.28874969
Pr       0.00000000       0.00000000       1.35151515       0.00000000       0.00000000      78.28874969
2
Properties=species:S:1:pos:R:3:forces:R:3 energy=-22.245637395036336 pbc="F F F"
Pr       0.00000000       0.00000000       0.00000000       0.00000000       0.00000000     -75.46269989
Pr       0.00000000       0.00000000       1.41111111       0.00000000       0.00000000      75.46269989
2
Properties=species:S:1:pos:R:3:forces:R:3 energy=-26.749131283928637 pbc="F F F"
Pr       0.00000000       0.00000000       0.00000000       0.00000000       0.00000000     -75.67035675
Pr       0.00000000       0.00000000       1.47070707       0.00000000       0.00000000      75.67035675
2
Properties=species:S:1:pos:R:3:forces:R:3 energy=-31.24460850415385 pbc="F F F"
Pr       0.00000000       0.00000000       0.00000000       0.00000000       0.00000000     -74.99881744
Pr       0.00000000       0.00000000       1.53030303       0.00000000       0.00000000      74.99881744
2
Properties=species:S:1:pos:R:3:forces:R:3 energy=-35.66449739669039 pbc="F F F"
Pr       0.00000000       0.00000000       0.00000000       0.00000000       0.00000000     -73.09883118
Pr       0.00000000       0.00000000       1.58989899       0.00000000       0.00000000      73.09883118
2
Properties=species:S:1:pos:R:3:forces:R:3 energy=-39.923957171163025 pbc="F F F"
Pr       0.00000000       0.00000000       0.00000000       0.00000000       0.00000000     -69.51982117
Pr       0.00000000       0.00000000       1.64949495       0.00000000       0.00000000      69.51982117
2
Properties=species:S:1:pos:R:3:forces:R:3 energy=-43.906904660255385 pbc="F F F"
Pr       0.00000000       0.00000000       0.00000000       0.00000000       0.00000000     -63.72714233
Pr       0.00000000       0.00000000       1.70909091       0.00000000       0.00000000      63.72714233
2
Properties=species:S:1:pos:R:3:forces:R:3 energy=-47.46354049803672 pbc="F F F"
Pr       0.00000000       0.00000000       0.00000000       0.00000000       0.00000000     -55.12618637
Pr       0.00000000       0.00000000       1.76868687       0.00000000       0.00000000      55.12618637
2
Properties=species:S:1:pos:R:3:forces:R:3 energy=-50.42315314183047 pbc="F F F"
Pr       0.00000000       0.00000000       0.00000000       0.00000000       0.00000000     -43.87127304
Pr       0.00000000       0.00000000       1.82828283       0.00000000       0.00000000      43.87127304
2
Properties=species:S:1:pos:R:3:forces:R:3 energy=-52.68071631800903 pbc="F F F"
Pr       0.00000000       0.00000000       0.00000000       0.00000000       0.00000000     -32.03432465
Pr       0.00000000       0.00000000       1.88787879       0.00000000       0.00000000      32.03432465
2
Properties=species:S:1:pos:R:3:forces:R:3 energy=-54.282212352566226 pbc="F F F"
Pr       0.00000000       0.00000000       0.00000000       0.00000000       0.00000000     -22.19144058
Pr       0.00000000       0.00000000       1.94747475       0.00000000       0.00000000      22.19144058
2
Properties=species:S:1:pos:R:3:forces:R:3 energy=-55.38767158514969 pbc="F F F"
Pr       0.00000000       0.00000000       0.00000000       0.00000000       0.00000000     -15.40862179
Pr       0.00000000       0.00000000       2.00707071       0.00000000       0.00000000      15.40862179
2
Properties=species:S:1:pos:R:3:forces:R:3 energy=-56.17016678635134 pbc="F F F"
Pr       0.00000000       0.00000000       0.00000000       0.00000000       0.00000000     -11.20145226
Pr       0.00000000       0.00000000       2.06666667       0.00000000       0.00000000      11.20145226
2
Properties=species:S:1:pos:R:3:forces:R:3 energy=-56.75600253828649 pbc="F F F"
Pr       0.00000000       0.00000000       0.00000000       0.00000000       0.00000000      -8.67906952
Pr       0.00000000       0.00000000       2.12626263       0.00000000       0.00000000       8.67906952
2
Properties=species:S:1:pos:R:3:forces:R:3 energy=-57.225573547814335 pbc="F F F"
Pr       0.00000000       0.00000000       0.00000000       0.00000000       0.00000000      -7.21313381
Pr       0.00000000       0.00000000       2.18585859       0.00000000       0.00000000       7.21313381
2
Properties=species:S:1:pos:R:3:forces:R:3 energy=-57.626704617533214 pbc="F F F"
Pr       0.00000000       0.00000000       0.00000000       0.00000000       0.00000000      -6.29945326
Pr       0.00000000       0.00000000       2.24545455       0.00000000       0.00000000       6.29945326
2
Properties=species:S:1:pos:R:3:forces:R:3 energy=-57.97823267185562 pbc="F F F"
Pr       0.00000000       0.00000000       0.00000000       0.00000000       0.00000000      -5.48296070
Pr       0.00000000       0.00000000       2.30505051       0.00000000       0.00000000       5.48296070
2
Properties=species:S:1:pos:R:3:forces:R:3 energy=-58.27632005880808 pbc="F F F"
Pr       0.00000000       0.00000000       0.00000000       0.00000000       0.00000000      -4.47807264
Pr       0.00000000       0.00000000       2.36464646       0.00000000       0.00000000       4.47807264
2
Properties=species:S:1:pos:R:3:forces:R:3 energy=-58.507138434278446 pbc="F F F"
Pr       0.00000000       0.00000000       0.00000000       0.00000000       0.00000000      -3.23616219
Pr       0.00000000       0.00000000       2.42424242       0.00000000       0.00000000       3.23616219
2
Properties=species:S:1:pos:R:3:forces:R:3 energy=-58.660147723197504 pbc="F F F"
Pr       0.00000000       0.00000000       0.00000000       0.00000000       0.00000000      -1.90151250
Pr       0.00000000       0.00000000       2.48383838       0.00000000       0.00000000       1.90151250
2
Properties=species:S:1:pos:R:3:forces:R:3 energy=-58.73647318206309 pbc="F F F"
Pr       0.00000000       0.00000000       0.00000000       0.00000000       0.00000000      -0.70115304
Pr       0.00000000       0.00000000       2.54343434       0.00000000       0.00000000       0.70115304
2
Properties=species:S:1:pos:R:3:forces:R:3 energy=-58.75038549514339 pbc="F F F"
Pr       0.00000000       0.00000000       0.00000000       0.00000000       0.00000000       0.16792224
Pr       0.00000000       0.00000000       2.60303030       0.00000000       0.00000000      -0.16792224
2
Properties=species:S:1:pos:R:3:forces:R:3 energy=-58.724776581533895 pbc="F F F"
Pr       0.00000000       0.00000000       0.00000000       0.00000000       0.00000000       0.62343997
Pr       0.00000000       0.00000000       2.66262626       0.00000000       0.00000000      -0.62343997
2
Properties=species:S:1:pos:R:3:forces:R:3 energy=-58.683186833522626 pbc="F F F"
Pr       0.00000000       0.00000000       0.00000000       0.00000000       0.00000000       0.72416991
Pr       0.00000000       0.00000000       2.72222222       0.00000000       0.00000000      -0.72416991
2
Properties=species:S:1:pos:R:3:forces:R:3 energy=-58.642545766700664 pbc="F F F"
Pr       0.00000000       0.00000000       0.00000000       0.00000000       0.00000000       0.61925071
Pr       0.00000000       0.00000000       2.78181818       0.00000000       0.00000000      -0.61925071
2
Properties=species:S:1:pos:R:3:forces:R:3 energy=-58.61040254657943 pbc="F F F"
Pr       0.00000000       0.00000000       0.00000000       0.00000000       0.00000000       0.46051443
Pr       0.00000000       0.00000000       2.84141414       0.00000000       0.00000000      -0.46051443
2
Properties=species:S:1:pos:R:3:forces:R:3 energy=-58.58679901445161 pbc="F F F"
Pr       0.00000000       0.00000000       0.00000000       0.00000000       0.00000000       0.34260026
Pr       0.00000000       0.00000000       2.90101010       0.00000000       0.00000000      -0.34260026
2
Properties=species:S:1:pos:R:3:forces:R:3 energy=-58.568137790418476 pbc="F F F"
Pr       0.00000000       0.00000000       0.00000000       0.00000000       0.00000000       0.29525682
Pr       0.00000000       0.00000000       2.96060606       0.00000000       0.00000000      -0.29525682
2
Properties=species:S:1:pos:R:3:forces:R:3 energy=-58.550390376769485 pbc="F F F"
Pr       0.00000000       0.00000000       0.00000000       0.00000000       0.00000000       0.30884656
Pr       0.00000000       0.00000000       3.02020202       0.00000000       0.00000000      -0.30884656
2
Properties=species:S:1:pos:R:3:forces:R:3 energy=-58.530493438551815 pbc="F F F"
Pr       0.00000000       0.00000000       0.00000000       0.00000000       0.00000000       0.36475086
Pr       0.00000000       0.00000000       3.07979798       0.00000000       0.00000000      -0.36475086
2
Properties=species:S:1:pos:R:3:forces:R:3 energy=-58.50626099267333 pbc="F F F"
Pr       0.00000000       0.00000000       0.00000000       0.00000000       0.00000000       0.45406884
Pr       0.00000000       0.00000000       3.13939394       0.00000000       0.00000000      -0.45406884
2
Properties=species:S:1:pos:R:3:forces:R:3 energy=-58.475648174498154 pbc="F F F"
Pr       0.00000000       0.00000000       0.00000000       0.00000000       0.00000000       0.57991546
Pr       0.00000000       0.00000000       3.19898990       0.00000000       0.00000000      -0.57991546
2
Properties=species:S:1:pos:R:3:forces:R:3 energy=-58.43630493093786 pbc="F F F"
Pr       0.00000000       0.00000000       0.00000000       0.00000000       0.00000000       0.74739188
Pr       0.00000000       0.00000000       3.25858586       0.00000000       0.00000000      -0.74739188
2
Properties=species:S:1:pos:R:3:forces:R:3 energy=-58.38584308410612 pbc="F F F"
Pr       0.00000000       0.00000000       0.00000000       0.00000000       0.00000000       0.95072037
Pr       0.00000000       0.00000000       3.31818182       0.00000000       0.00000000      -0.95072037
2
Properties=species:S:1:pos:R:3:forces:R:3 energy=-58.32270600626756 pbc="F F F"
Pr       0.00000000       0.00000000       0.00000000       0.00000000       0.00000000       1.16778409
Pr       0.00000000       0.00000000       3.37777778       0.00000000       0.00000000      -1.16778409
2
Properties=species:S:1:pos:R:3:forces:R:3 energy=-58.24702698691109 pbc="F F F"
Pr       0.00000000       0.00000000       0.00000000       0.00000000       0.00000000       1.36598718
Pr       0.00000000       0.00000000       3.43737374       0.00000000       0.00000000      -1.36598718
2
Properties=species:S:1:pos:R:3:forces:R:3 energy=-58.16088097109127 pbc="F F F"
Pr       0.00000000       0.00000000       0.00000000       0.00000000       0.00000000       1.51477420
Pr       0.00000000       0.00000000       3.49696970       0.00000000       0.00000000      -1.51477420
2
Properties=species:S:1:pos:R:3:forces:R:3 energy=-58.06782678625293 pbc="F F F"
Pr       0.00000000       0.00000000       0.00000000       0.00000000       0.00000000       1.59615016
Pr       0.00000000       0.00000000       3.55656566       0.00000000       0.00000000      -1.59615016
2
Properties=species:S:1:pos:R:3:forces:R:3 energy=-57.972026032694025 pbc="F F F"
Pr       0.00000000       0.00000000       0.00000000       0.00000000       0.00000000       1.60786688
Pr       0.00000000       0.00000000       3.61616162       0.00000000       0.00000000      -1.60786688
2
Properties=species:S:1:pos:R:3:forces:R:3 energy=-57.87736555113908 pbc="F F F"
Pr       0.00000000       0.00000000       0.00000000       0.00000000       0.00000000       1.56024110
Pr       0.00000000       0.00000000       3.67575758       0.00000000       0.00000000      -1.56024110
2
Properties=species:S:1:pos:R:3:forces:R:3 energy=-57.78689299643152 pbc="F F F"
Pr       0.00000000       0.00000000       0.00000000       0.00000000       0.00000000       1.47055960
Pr       0.00000000       0.00000000       3.73535354       0.00000000       0.00000000      -1.47055960
2
Properties=species:S:1:pos:R:3:forces:R:3 energy=-57.70254210013498 pbc="F F F"
Pr       0.00000000       0.00000000       0.00000000       0.00000000       0.00000000       1.35793483
Pr       0.00000000       0.00000000       3.79494949       0.00000000       0.00000000      -1.35793483
2
Properties=species:S:1:pos:R:3:forces:R:3 energy=-57.62515559673076 pbc="F F F"
Pr       0.00000000       0.00000000       0.00000000       0.00000000       0.00000000       1.23922884
Pr       0.00000000       0.00000000       3.85454545       0.00000000       0.00000000      -1.23922884
2
Properties=species:S:1:pos:R:3:forces:R:3 energy=-57.5547254798535 pbc="F F F"
Pr       0.00000000       0.00000000       0.00000000       0.00000000       0.00000000       1.12595224
Pr       0.00000000       0.00000000       3.91414141       0.00000000       0.00000000      -1.12595224
2
Properties=species:S:1:pos:R:3:forces:R:3 energy=-57.49074785783588 pbc="F F F"
Pr       0.00000000       0.00000000       0.00000000       0.00000000       0.00000000       1.02282226
Pr       0.00000000       0.00000000       3.97373737       0.00000000       0.00000000      -1.02282226
2
Properties=species:S:1:pos:R:3:forces:R:3 energy=-57.43262347791458 pbc="F F F"
Pr       0.00000000       0.00000000       0.00000000       0.00000000       0.00000000       0.92915821
Pr       0.00000000       0.00000000       4.03333333       0.00000000       0.00000000      -0.92915821
2
Properties=species:S:1:pos:R:3:forces:R:3 energy=-57.379859835493285 pbc="F F F"
Pr       0.00000000       0.00000000       0.00000000       0.00000000       0.00000000       0.84248185
Pr       0.00000000       0.00000000       4.09292929       0.00000000       0.00000000      -0.84248185
2
Properties=species:S:1:pos:R:3:forces:R:3 energy=-57.33208267525525 pbc="F F F"
Pr       0.00000000       0.00000000       0.00000000       0.00000000       0.00000000       0.76205277
Pr       0.00000000       0.00000000       4.15252525       0.00000000       0.00000000      -0.76205277
2
Properties=species:S:1:pos:R:3:forces:R:3 energy=-57.28886433295421 pbc="F F F"
Pr       0.00000000       0.00000000       0.00000000       0.00000000       0.00000000       0.69000423
Pr       0.00000000       0.00000000       4.21212121       0.00000000       0.00000000      -0.69000423
2
Properties=species:S:1:pos:R:3:forces:R:3 energy=-57.24959401353256 pbc="F F F"
Pr       0.00000000       0.00000000       0.00000000       0.00000000       0.00000000       0.63025028
Pr       0.00000000       0.00000000       4.27171717       0.00000000       0.00000000      -0.63025028
2
Properties=species:S:1:pos:R:3:forces:R:3 energy=-57.21342059600497 pbc="F F F"
Pr       0.00000000       0.00000000       0.00000000       0.00000000       0.00000000       0.58683467
Pr       0.00000000       0.00000000       4.33131313       0.00000000       0.00000000      -0.58683467
2
Properties=species:S:1:pos:R:3:forces:R:3 energy=-57.17926023751032 pbc="F F F"
Pr       0.00000000       0.00000000       0.00000000       0.00000000       0.00000000       0.56298530
Pr       0.00000000       0.00000000       4.39090909       0.00000000       0.00000000      -0.56298530
2
Properties=species:S:1:pos:R:3:forces:R:3 energy=-57.14588032516196 pbc="F F F"
Pr       0.00000000       0.00000000       0.00000000       0.00000000       0.00000000       0.56103510
Pr       0.00000000       0.00000000       4.45050505       0.00000000       0.00000000      -0.56103510
2
Properties=species:S:1:pos:R:3:forces:R:3 energy=-57.11192616308945 pbc="F F F"
Pr       0.00000000       0.00000000       0.00000000       0.00000000       0.00000000       0.58240652
Pr       0.00000000       0.00000000       4.51010101       0.00000000       0.00000000      -0.58240652
2
Properties=species:S:1:pos:R:3:forces:R:3 energy=-57.07599726004822 pbc="F F F"
Pr       0.00000000       0.00000000       0.00000000       0.00000000       0.00000000       0.62709683
Pr       0.00000000       0.00000000       4.56969697       0.00000000       0.00000000      -0.62709683
2
Properties=species:S:1:pos:R:3:forces:R:3 energy=-57.03676561354523 pbc="F F F"
Pr       0.00000000       0.00000000       0.00000000       0.00000000       0.00000000       0.69245970
Pr       0.00000000       0.00000000       4.62929293       0.00000000       0.00000000      -0.69245970
2
Properties=species:S:1:pos:R:3:forces:R:3 energy=-56.993181684484355 pbc="F F F"
Pr       0.00000000       0.00000000       0.00000000       0.00000000       0.00000000       0.77184224
Pr       0.00000000       0.00000000       4.68888889       0.00000000       0.00000000      -0.77184224
2
Properties=species:S:1:pos:R:3:forces:R:3 energy=-56.94470711587435 pbc="F F F"
Pr       0.00000000       0.00000000       0.00000000       0.00000000       0.00000000       0.85416567
Pr       0.00000000       0.00000000       4.74848485       0.00000000       0.00000000      -0.85416567
2
Properties=species:S:1:pos:R:3:forces:R:3 energy=-56.891593164547565 pbc="F F F"
Pr       0.00000000       0.00000000       0.00000000       0.00000000       0.00000000       0.92541856
Pr       0.00000000       0.00000000       4.80808081       0.00000000       0.00000000      -0.92541856
2
Properties=species:S:1:pos:R:3:forces:R:3 energy=-56.83489220860815 pbc="F F F"
Pr       0.00000000       0.00000000       0.00000000       0.00000000       0.00000000       0.97235322
Pr       0.00000000       0.00000000       4.86767677       0.00000000       0.00000000      -0.97235322
2
Properties=species:S:1:pos:R:3:forces:R:3 energy=-56.77633563593794 pbc="F F F"
Pr       0.00000000       0.00000000       0.00000000       0.00000000       0.00000000       0.98723137
Pr       0.00000000       0.00000000       4.92727273       0.00000000       0.00000000      -0.98723137
2
Properties=species:S:1:pos:R:3:forces:R:3 energy=-56.7178341537006 pbc="F F F"
Pr       0.00000000       0.00000000       0.00000000       0.00000000       0.00000000       0.97153670
Pr       0.00000000       0.00000000       4.98686869       0.00000000       0.00000000      -0.97153670
2
Properties=species:S:1:pos:R:3:forces:R:3 energy=-56.660936075987415 pbc="F F F"
Pr       0.00000000       0.00000000       0.00000000       0.00000000       0.00000000       0.93621135
Pr       0.00000000       0.00000000       5.04646465       0.00000000       0.00000000      -0.93621135
2
Properties=species:S:1:pos:R:3:forces:R:3 energy=-56.60631998175221 pbc="F F F"
Pr       0.00000000       0.00000000       0.00000000       0.00000000       0.00000000       0.89729190
Pr       0.00000000       0.00000000       5.10606061       0.00000000       0.00000000      -0.89729190
2
Properties=species:S:1:pos:R:3:forces:R:3 energy=-56.55378329289431 pbc="F F F"
Pr       0.00000000       0.00000000       0.00000000       0.00000000       0.00000000       0.86757624
Pr       0.00000000       0.00000000       5.16565657       0.00000000       0.00000000      -0.86757624
2
Properties=species:S:1:pos:R:3:forces:R:3 energy=-56.50269240536808 pbc="F F F"
Pr       0.00000000       0.00000000       0.00000000       0.00000000       0.00000000       0.84805936
Pr       0.00000000       0.00000000       5.22525253       0.00000000       0.00000000      -0.84805936
2
Properties=species:S:1:pos:R:3:forces:R:3 energy=-56.45276850098052 pbc="F F F"
Pr       0.00000000       0.00000000       0.00000000       0.00000000       0.00000000       0.82536638
Pr       0.00000000       0.00000000       5.28484848       0.00000000       0.00000000      -0.82536638
2
Properties=species:S:1:pos:R:3:forces:R:3 energy=-56.404705566362146 pbc="F F F"
Pr       0.00000000       0.00000000       0.00000000       0.00000000       0.00000000       0.78394020
Pr       0.00000000       0.00000000       5.34444444       0.00000000       0.00000000      -0.78394020
2
Properties=species:S:1:pos:R:3:forces:R:3 energy=-56.35950279560297 pbc="F F F"
Pr       0.00000000       0.00000000       0.00000000       0.00000000       0.00000000       0.73495704
Pr       0.00000000       0.00000000       5.40404040       0.00000000       0.00000000      -0.73495704
2
Properties=species:S:1:pos:R:3:forces:R:3 energy=-56.31641612633121 pbc="F F F"
Pr       0.00000000       0.00000000       0.00000000       0.00000000       0.00000000       0.71789813
Pr       0.00000000       0.00000000       5.46363636       0.00000000       0.00000000      -0.71789813
2
Properties=species:S:1:pos:R:3:forces:R:3 energy=-56.2736486967506 pbc="F F F"
Pr       0.00000000       0.00000000       0.00000000       0.00000000       0.00000000       0.71320838
Pr       0.00000000       0.00000000       5.52323232       0.00000000       0.00000000      -0.71320838
2
Properties=species:S:1:pos:R:3:forces:R:3 energy=-56.232707233085485 pbc="F F F"
Pr       0.00000000       0.00000000       0.00000000       0.00000000       0.00000000       0.64835393
Pr       0.00000000       0.00000000       5.58282828       0.00000000       0.00000000      -0.64835393
2
Properties=species:S:1:pos:R:3:forces:R:3 energy=-56.19725382887177 pbc="F F F"
Pr       0.00000000       0.00000000       0.00000000       0.00000000       0.00000000       0.54090428
Pr       0.00000000       0.00000000       5.64242424       0.00000000       0.00000000      -0.54090428
2
Properties=species:S:1:pos:R:3:forces:R:3 energy=-56.167540317485425 pbc="F F F"
Pr       0.00000000       0.00000000       0.00000000       0.00000000       0.00000000       0.46528280
Pr       0.00000000       0.00000000       5.70202020       0.00000000       0.00000000      -0.46528280
2
Properties=species:S:1:pos:R:3:forces:R:3 energy=-56.14098427875833 pbc="F F F"
Pr       0.00000000       0.00000000       0.00000000       0.00000000       0.00000000       0.42605063
Pr       0.00000000       0.00000000       5.76161616       0.00000000       0.00000000      -0.42605063
2
Properties=species:S:1:pos:R:3:forces:R:3 energy=-56.11794832434263 pbc="F F F"
Pr       0.00000000       0.00000000       0.00000000       0.00000000       0.00000000       0.33208096
Pr       0.00000000       0.00000000       5.82121212       0.00000000       0.00000000      -0.33208096
2
Properties=species:S:1:pos:R:3:forces:R:3 energy=-56.10264417779484 pbc="F F F"
Pr       0.00000000       0.00000000       0.00000000       0.00000000       0.00000000       0.18061048
Pr       0.00000000       0.00000000       5.88080808       0.00000000       0.00000000      -0.18061048
2
Properties=species:S:1:pos:R:3:forces:R:3 energy=-56.09583514603548 pbc="F F F"
Pr       0.00000000       0.00000000       0.00000000       0.00000000       0.00000000       0.05543906
Pr       0.00000000       0.00000000       5.94040404       0.00000000       0.00000000      -0.05543906
2
Properties=species:S:1:pos:R:3:forces:R:3 energy=-56.09440510607531 pbc="F F F"
Pr       0.00000000       0.00000000       0.00000000       0.00000000       0.00000000       0.00862826
Pr       0.00000000       0.00000000       6.00000000       0.00000000       0.00000000      -0.00862826
