2
Properties=species:S:1:pos:R:3:forces:R:3 energy=-223319.8075902384 pbc="F F F"
Pt       0.00000000       0.00000000       0.00000000       0.00000000       0.00000000 -2129155.00000000
Pt       0.00000000       0.00000000       0.10000000       0.00000000       0.00000000 2129155.00000000
2
Properties=species:S:1:pos:R:3:forces:R:3 energy=-282566.2294652384 pbc="F F F"
Pt       0.00000000       0.00000000       0.00000000       0.00000000       0.00000000 -370852.03125000
Pt       0.00000000       0.00000000       0.15959596       0.00000000       0.00000000  370852.03125000
2
Properties=species:S:1:pos:R:3:forces:R:3 energy=-289829.8544652384 pbc="F F F"
Pt       0.00000000       0.00000000       0.00000000       0.00000000       0.00000000   72595.51562500
Pt       0.00000000       0.00000000       0.21919192       0.00000000       0.00000000  -72595.51562500
2
Properties=species:S:1:pos:R:3:forces:R:3 energy=-275745.0419652384 pbc="F F F"
Pt       0.00000000       0.00000000       0.00000000       0.00000000       0.00000000  403799.53125000
Pt       0.00000000       0.00000000       0.27878788       0.00000000       0.00000000 -403799.53125000
2
Properties=species:S:1:pos:R:3:forces:R:3 energy=-240855.6513402384 pbc="F F F"
Pt       0.00000000       0.00000000       0.00000000       0.00000000       0.00000000  771131.25000000
Pt       0.00000000       0.00000000       0.33838384       0.00000000       0.00000000 -771131.25000000
2
Properties=species:S:1:pos:R:3:forces:R:3 energy=-179765.1044652384 pbc="F F F"
Pt       0.00000000       0.00000000       0.00000000       0.00000000       0.00000000 1189494.37500000
Pt       0.00000000       0.00000000       0.39797980       0.00000000       0.00000000 -1189494.37500000
2
Properties=species:S:1:pos:R:3:forces:R:3 energy=-97368.01852773761 pbc="F F F"
Pt       0.00000000       0.00000000       0.00000000       0.00000000       0.00000000 1488027.00000000
Pt       0.00000000       0.00000000       0.45757576       0.00000000       0.00000000 -1488027.00000000
2
Properties=species:S:1:pos:R:3:forces:R:3 energy=-25550.321262110236 pbc="F F F"
Pt       0.00000000       0.00000000       0.00000000       0.00000000       0.00000000  860670.81250000
Pt       0.00000000       0.00000000       0.51717172       0.00000000       0.00000000 -860670.81250000
2
Properties=species:S:1:pos:R:3:forces:R:3 energy=2378.146511329641 pbc="F F F"
Pt       0.00000000       0.00000000       0.00000000       0.00000000       0.00000000  137627.93750000
Pt       0.00000000       0.00000000       0.57676768       0.00000000       0.00000000 -137627.93750000
2
Properties=species:S:1:pos:R:3:forces:R:3 energy=1786.4089625078514 pbc="F F F"
Pt       0.00000000       0.00000000       0.00000000       0.00000000       0.00000000  -65887.20312500
Pt       0.00000000       0.00000000       0.63636364       0.00000000       0.00000000   65887.20312500
2
Properties=species:S:1:pos:R:3:forces:R:3 energy=23.558559684531637 pbc="F F F"
Pt       0.00000000       0.00000000       0.00000000       0.00000000       0.00000000    3145.18090820
Pt       0.00000000       0.00000000       0.69595960       0.00000000       0.00000000   -3145.18090820
2
Properties=species:S:1:pos:R:3:forces:R:3 energy=37.91193036449879 pbc="F F F"
Pt       0.00000000       0.00000000       0.00000000       0.00000000       0.00000000     -36.44082260
Pt       0.00000000       0.00000000       0.75555556       0.00000000       0.00000000      36.44082260
2
Properties=species:S:1:pos:R:3:forces:R:3 energy=36.66005355245103 pbc="F F F"
Pt       0.00000000       0.00000000       0.00000000       0.00000000       0.00000000      -6.02221823
Pt       0.00000000       0.00000000       0.81515152       0.00000000       0.00000000       6.02221823
2
Properties=species:S:1:pos:R:3:forces:R:3 energy=37.63531908547503 pbc="F F F"
Pt       0.00000000       0.00000000       0.00000000       0.00000000       0.00000000      -2.89893746
Pt       0.00000000       0.00000000       0.87474747       0.00000000       0.00000000       2.89893746
2
Properties=species:S:1:pos:R:3:forces:R:3 energy=32.93500937244679 pbc="F F F"
Pt       0.00000000       0.00000000       0.00000000       0.00000000       0.00000000    -123.70877075
Pt       0.00000000       0.00000000       0.93434343       0.00000000       0.00000000     123.70877075
2
Properties=species:S:1:pos:R:3:forces:R:3 energy=19.33610195797251 pbc="F F F"
Pt       0.00000000       0.00000000       0.00000000       0.00000000       0.00000000    -268.98486328
Pt       0.00000000       0.00000000       0.99393939       0.00000000       0.00000000     268.98486328
2
Properties=species:S:1:pos:R:3:forces:R:3 energy=2.184338117192662 pbc="F F F"
Pt       0.00000000       0.00000000       0.00000000       0.00000000       0.00000000    -292.96627808
Pt       0.00000000       0.00000000       1.05353535       0.00000000       0.00000000     292.96627808
2
Properties=species:S:1:pos:R:3:forces:R:3 energy=-14.709109658205547 pbc="F F F"
Pt       0.00000000       0.00000000       0.00000000       0.00000000       0.00000000    -269.60208130
Pt       0.00000000       0.00000000       1.11313131       0.00000000       0.00000000     269.60208130
2
Properties=species:S:1:pos:R:3:forces:R:3 energy=-29.579348782969518 pbc="F F F"
Pt       0.00000000       0.00000000       0.00000000       0.00000000       0.00000000    -228.22297668
Pt       0.00000000       0.00000000       1.17272727       0.00000000       0.00000000     228.22297668
2
Properties=species:S:1:pos:R:3:forces:R:3 energy=-41.95139603622353 pbc="F F F"
Pt       0.00000000       0.00000000       0.00000000       0.00000000       0.00000000    -188.10791016
Pt       0.00000000       0.00000000       1.23232323       0.00000000       0.00000000     188.10791016
2
Properties=species:S:1:pos:R:3:forces:R:3 energy=-52.15472681050419 pbc="F F F"
Pt       0.00000000       0.00000000       0.00000000       0.00000000       0.00000000    -155.53601074
Pt       0.00000000       0.00000000       1.29191919       0.00000000       0.00000000     155.53601074
2
Properties=species:S:1:pos:R:3:forces:R:3 energy=-60.553431062920296 pbc="F F F"
Pt       0.00000000       0.00000000       0.00000000       0.00000000       0.00000000    -126.12715912
Pt       0.00000000       0.00000000       1.35151515       0.00000000       0.00000000     126.12715912
2
Properties=species:S:1:pos:R:3:forces:R:3 energy=-67.16181389475472 pbc="F F F"
Pt       0.00000000       0.00000000       0.00000000       0.00000000       0.00000000     -95.86318970
Pt       0.00000000       0.00000000       1.41111111       0.00000000       0.00000000      95.86318970
2
Properties=species:S:1:pos:R:3:forces:R:3 energy=-72.09157725787621 pbc="F F F"
Pt       0.00000000       0.00000000       0.00000000       0.00000000       0.00000000     -71.16461945
Pt       0.00000000       0.00000000       1.47070707       0.00000000       0.00000000      71.16461945
2
Properties=species:S:1:pos:R:3:forces:R:3 energy=-75.87872425319844 pbc="F F F"
Pt       0.00000000       0.00000000       0.00000000       0.00000000       0.00000000     -57.95996857
Pt       0.00000000       0.00000000       1.53030303       0.00000000       0.00000000      57.95996857
2
Properties=species:S:1:pos:R:3:forces:R:3 energy=-79.1799244760378 pbc="F F F"
Pt       0.00000000       0.00000000       0.00000000       0.00000000       0.00000000     -53.65947723
Pt       0.00000000       0.00000000       1.58989899       0.00000000       0.00000000      53.65947723
2
Properties=species:S:1:pos:R:3:forces:R:3 energy=-82.3019253478706 pbc="F F F"
Pt       0.00000000       0.00000000       0.00000000       0.00000000       0.00000000     -50.83277512
Pt       0.00000000       0.00000000       1.64949495       0.00000000       0.00000000      50.83277512
2
Properties=species:S:1:pos:R:3:forces:R:3 energy=-85.18413420228246 pbc="F F F"
Pt       0.00000000       0.00000000       0.00000000       0.00000000       0.00000000     -45.49576950
Pt       0.00000000       0.00000000       1.70909091       0.00000000       0.00000000      45.49576950
2
Properties=species:S:1:pos:R:3:forces:R:3 energy=-87.69276959349666 pbc="F F F"
Pt       0.00000000       0.00000000       0.00000000       0.00000000       0.00000000     -38.48474884
Pt       0.00000000       0.00000000       1.76868687       0.00000000       0.00000000      38.48474884
2
Properties=species:S:1:pos:R:3:forces:R:3 energy=-89.75095011915744 pbc="F F F"
Pt       0.00000000       0.00000000       0.00000000       0.00000000       0.00000000     -30.49354744
Pt       0.00000000       0.00000000       1.82828283       0.00000000       0.00000000      30.49354744
2
Properties=species:S:1:pos:R:3:forces:R:3 energy=-91.33040890578862 pbc="F F F"
Pt       0.00000000       0.00000000       0.00000000       0.00000000       0.00000000     -22.65208435
Pt       0.00000000       0.00000000       1.88787879       0.00000000       0.00000000      22.65208435
2
Properties=species:S:1:pos:R:3:forces:R:3 energy=-92.47656382456593 pbc="F F F"
Pt       0.00000000       0.00000000       0.00000000       0.00000000       0.00000000     -16.07083893
Pt       0.00000000       0.00000000       1.94747475       0.00000000       0.00000000      16.07083893
2
Properties=species:S:1:pos:R:3:forces:R:3 energy=-93.27734383594748 pbc="F F F"
Pt       0.00000000       0.00000000       0.00000000       0.00000000       0.00000000     -11.05441666
Pt       0.00000000       0.00000000       2.00707071       0.00000000       0.00000000      11.05441666
2
Properties=species:S:1:pos:R:3:forces:R:3 energy=-93.82133418671211 pbc="F F F"
Pt       0.00000000       0.00000000       0.00000000       0.00000000       0.00000000      -7.40501547
Pt       0.00000000       0.00000000       2.06666667       0.00000000       0.00000000       7.40501547
2
Properties=species:S:1:pos:R:3:forces:R:3 energy=-94.18168612222316 pbc="F F F"
Pt       0.00000000       0.00000000       0.00000000       0.00000000       0.00000000      -4.85084295
Pt       0.00000000       0.00000000       2.12626263       0.00000000       0.00000000       4.85084295
2
Properties=species:S:1:pos:R:3:forces:R:3 energy=-94.41664345641117 pbc="F F F"
Pt       0.00000000       0.00000000       0.00000000       0.00000000       0.00000000      -3.15797496
Pt       0.00000000       0.00000000       2.18585859       0.00000000       0.00000000       3.15797496
2
Properties=species:S:1:pos:R:3:forces:R:3 energy=-94.57006160185294 pbc="F F F"
Pt       0.00000000       0.00000000       0.00000000       0.00000000       0.00000000      -2.06499958
Pt       0.00000000       0.00000000       2.24545455       0.00000000       0.00000000       2.06499958
2
Properties=species:S:1:pos:R:3:forces:R:3 energy=-94.66818061940502 pbc="F F F"
Pt       0.00000000       0.00000000       0.00000000       0.00000000       0.00000000      -1.24499536
Pt       0.00000000       0.00000000       2.30505051       0.00000000       0.00000000       1.24499536
2
Properties=species:S:1:pos:R:3:forces:R:3 energy=-94.71787852480732 pbc="F F F"
Pt       0.00000000       0.00000000       0.00000000       0.00000000       0.00000000      -0.40194866
Pt       0.00000000       0.00000000       2.36464646       0.00000000       0.00000000       0.40194866
2
Properties=species:S:1:pos:R:3:forces:R:3 energy=-94.71259980340731 pbc="F F F"
Pt       0.00000000       0.00000000       0.00000000       0.00000000       0.00000000       0.61224568
Pt       0.00000000       0.00000000       2.42424242       0.00000000       0.00000000      -0.61224568
2
Properties=species:S:1:pos:R:3:forces:R:3 energy=-94.64201436777252 pbc="F F F"
Pt       0.00000000       0.00000000       0.00000000       0.00000000       0.00000000       1.75904250
Pt       0.00000000       0.00000000       2.48383838       0.00000000       0.00000000      -1.75904250
2
Properties=species:S:1:pos:R:3:forces:R:3 energy=-94.50760286957227 pbc="F F F"
Pt       0.00000000       0.00000000       0.00000000       0.00000000       0.00000000       2.66474509
Pt       0.00000000       0.00000000       2.54343434       0.00000000       0.00000000      -2.66474509
2
Properties=species:S:1:pos:R:3:forces:R:3 energy=-94.33871786644046 pbc="F F F"
Pt       0.00000000       0.00000000       0.00000000       0.00000000       0.00000000       2.87316561
Pt       0.00000000       0.00000000       2.60303030       0.00000000       0.00000000      -2.87316561
2
Properties=species:S:1:pos:R:3:forces:R:3 energy=-94.17719084409688 pbc="F F F"
Pt       0.00000000       0.00000000       0.00000000       0.00000000       0.00000000       2.49187231
Pt       0.00000000       0.00000000       2.66262626       0.00000000       0.00000000      -2.49187231
2
Properties=species:S:1:pos:R:3:forces:R:3 energy=-94.04269138273325 pbc="F F F"
Pt       0.00000000       0.00000000       0.00000000       0.00000000       0.00000000       2.05034804
Pt       0.00000000       0.00000000       2.72222222       0.00000000       0.00000000      -2.05034804
2
Properties=species:S:1:pos:R:3:forces:R:3 energy=-93.9276651332132 pbc="F F F"
Pt       0.00000000       0.00000000       0.00000000       0.00000000       0.00000000       1.85423386
Pt       0.00000000       0.00000000       2.78181818       0.00000000       0.00000000      -1.85423386
2
Properties=species:S:1:pos:R:3:forces:R:3 energy=-93.81770109031149 pbc="F F F"
Pt       0.00000000       0.00000000       0.00000000       0.00000000       0.00000000       1.85579038
Pt       0.00000000       0.00000000       2.84141414       0.00000000       0.00000000      -1.85579038
2
Properties=species:S:1:pos:R:3:forces:R:3 energy=-93.70558677971087 pbc="F F F"
Pt       0.00000000       0.00000000       0.00000000       0.00000000       0.00000000       1.90470660
Pt       0.00000000       0.00000000       2.90101010       0.00000000       0.00000000      -1.90470660
2
Properties=species:S:1:pos:R:3:forces:R:3 energy=-93.59146814729425 pbc="F F F"
Pt       0.00000000       0.00000000       0.00000000       0.00000000       0.00000000       1.91652179
Pt       0.00000000       0.00000000       2.96060606       0.00000000       0.00000000      -1.91652179
2
Properties=species:S:1:pos:R:3:forces:R:3 energy=-93.47799233429964 pbc="F F F"
Pt       0.00000000       0.00000000       0.00000000       0.00000000       0.00000000       1.88760233
Pt       0.00000000       0.00000000       3.02020202       0.00000000       0.00000000      -1.88760233
2
Properties=species:S:1:pos:R:3:forces:R:3 energy=-93.36651978287429 pbc="F F F"
Pt       0.00000000       0.00000000       0.00000000       0.00000000       0.00000000       1.85666335
Pt       0.00000000       0.00000000       3.07979798       0.00000000       0.00000000      -1.85666335
2
Properties=species:S:1:pos:R:3:forces:R:3 energy=-93.2559676899947 pbc="F F F"
Pt       0.00000000       0.00000000       0.00000000       0.00000000       0.00000000       1.86078703
Pt       0.00000000       0.00000000       3.13939394       0.00000000       0.00000000      -1.86078703
2
Properties=species:S:1:pos:R:3:forces:R:3 energy=-93.14400147439756 pbc="F F F"
Pt       0.00000000       0.00000000       0.00000000       0.00000000       0.00000000       1.90033472
Pt       0.00000000       0.00000000       3.19898990       0.00000000       0.00000000      -1.90033472
2
Properties=species:S:1:pos:R:3:forces:R:3 energy=-93.02945369379172 pbc="F F F"
Pt       0.00000000       0.00000000       0.00000000       0.00000000       0.00000000       1.94036555
Pt       0.00000000       0.00000000       3.25858586       0.00000000       0.00000000      -1.94036555
2
Properties=species:S:1:pos:R:3:forces:R:3 energy=-92.91345330929045 pbc="F F F"
Pt       0.00000000       0.00000000       0.00000000       0.00000000       0.00000000       1.94469142
Pt       0.00000000       0.00000000       3.31818182       0.00000000       0.00000000      -1.94469142
2
Properties=species:S:1:pos:R:3:forces:R:3 energy=-92.79865513161087 pbc="F F F"
Pt       0.00000000       0.00000000       0.00000000       0.00000000       0.00000000       1.89975893
Pt       0.00000000       0.00000000       3.37777778       0.00000000       0.00000000      -1.89975893
2
Properties=species:S:1:pos:R:3:forces:R:3 energy=-92.68789707377107 pbc="F F F"
Pt       0.00000000       0.00000000       0.00000000       0.00000000       0.00000000       1.81073725
Pt       0.00000000       0.00000000       3.43737374       0.00000000       0.00000000      -1.81073725
2
Properties=species:S:1:pos:R:3:forces:R:3 energy=-92.58348298087651 pbc="F F F"
Pt       0.00000000       0.00000000       0.00000000       0.00000000       0.00000000       1.68883193
Pt       0.00000000       0.00000000       3.49696970       0.00000000       0.00000000      -1.68883193
2
Properties=species:S:1:pos:R:3:forces:R:3 energy=-92.48702241521076 pbc="F F F"
Pt       0.00000000       0.00000000       0.00000000       0.00000000       0.00000000       1.54552972
Pt       0.00000000       0.00000000       3.55656566       0.00000000       0.00000000      -1.54552972
2
Properties=species:S:1:pos:R:3:forces:R:3 energy=-92.39946118410903 pbc="F F F"
Pt       0.00000000       0.00000000       0.00000000       0.00000000       0.00000000       1.39253473
Pt       0.00000000       0.00000000       3.61616162       0.00000000       0.00000000      -1.39253473
2
Properties=species:S:1:pos:R:3:forces:R:3 energy=-92.32100502938181 pbc="F F F"
Pt       0.00000000       0.00000000       0.00000000       0.00000000       0.00000000       1.24166048
Pt       0.00000000       0.00000000       3.67575758       0.00000000       0.00000000      -1.24166048
2
Properties=species:S:1:pos:R:3:forces:R:3 energy=-92.25121120222397 pbc="F F F"
Pt       0.00000000       0.00000000       0.00000000       0.00000000       0.00000000       1.10318005
Pt       0.00000000       0.00000000       3.73535354       0.00000000       0.00000000      -1.10318005
2
Properties=species:S:1:pos:R:3:forces:R:3 energy=-92.18912577964508 pbc="F F F"
Pt       0.00000000       0.00000000       0.00000000       0.00000000       0.00000000       0.98384821
Pt       0.00000000       0.00000000       3.79494949       0.00000000       0.00000000      -0.98384821
2
Properties=species:S:1:pos:R:3:forces:R:3 energy=-92.13352019153893 pbc="F F F"
Pt       0.00000000       0.00000000       0.00000000       0.00000000       0.00000000       0.88598102
Pt       0.00000000       0.00000000       3.85454545       0.00000000       0.00000000      -0.88598102
2
Properties=species:S:1:pos:R:3:forces:R:3 energy=-92.08313534863731 pbc="F F F"
Pt       0.00000000       0.00000000       0.00000000       0.00000000       0.00000000       0.80785072
Pt       0.00000000       0.00000000       3.91414141       0.00000000       0.00000000      -0.80785072
2
Properties=species:S:1:pos:R:3:forces:R:3 energy=-92.03692578867864 pbc="F F F"
Pt       0.00000000       0.00000000       0.00000000       0.00000000       0.00000000       0.74503630
Pt       0.00000000       0.00000000       3.97373737       0.00000000       0.00000000      -0.74503630
2
Properties=species:S:1:pos:R:3:forces:R:3 energy=-91.99413599015219 pbc="F F F"
Pt       0.00000000       0.00000000       0.00000000       0.00000000       0.00000000       0.69211036
Pt       0.00000000       0.00000000       4.03333333       0.00000000       0.00000000      -0.69211036
2
Properties=species:S:1:pos:R:3:forces:R:3 energy=-91.9543308724532 pbc="F F F"
Pt       0.00000000       0.00000000       0.00000000       0.00000000       0.00000000       0.64412147
Pt       0.00000000       0.00000000       4.09292929       0.00000000       0.00000000      -0.64412147
2
Properties=species:S:1:pos:R:3:forces:R:3 energy=-91.91733476864616 pbc="F F F"
Pt       0.00000000       0.00000000       0.00000000       0.00000000       0.00000000       0.59756184
Pt       0.00000000       0.00000000       4.15252525       0.00000000       0.00000000      -0.59756184
2
Properties=species:S:1:pos:R:3:forces:R:3 energy=-91.88311699959402 pbc="F F F"
Pt       0.00000000       0.00000000       0.00000000       0.00000000       0.00000000       0.55066377
Pt       0.00000000       0.00000000       4.21212121       0.00000000       0.00000000      -0.55066377
2
Properties=species:S:1:pos:R:3:forces:R:3 energy=-91.85171556734157 pbc="F F F"
Pt       0.00000000       0.00000000       0.00000000       0.00000000       0.00000000       0.50315893
Pt       0.00000000       0.00000000       4.27171717       0.00000000       0.00000000      -0.50315893
2
Properties=species:S:1:pos:R:3:forces:R:3 energy=-91.82313799516132 pbc="F F F"
Pt       0.00000000       0.00000000       0.00000000       0.00000000       0.00000000       0.45575348
Pt       0.00000000       0.00000000       4.33131313       0.00000000       0.00000000      -0.45575348
2
Properties=species:S:1:pos:R:3:forces:R:3 energy=-91.7973689419008 pbc="F F F"
Pt       0.00000000       0.00000000       0.00000000       0.00000000       0.00000000       0.40959787
Pt       0.00000000       0.00000000       4.39090909       0.00000000       0.00000000      -0.40959787
2
Properties=species:S:1:pos:R:3:forces:R:3 energy=-91.77427103410895 pbc="F F F"
Pt       0.00000000       0.00000000       0.00000000       0.00000000       0.00000000       0.36591318
Pt       0.00000000       0.00000000       4.45050505       0.00000000       0.00000000      -0.36591318
2
Properties=species:S:1:pos:R:3:forces:R:3 energy=-91.75367642669 pbc="F F F"
Pt       0.00000000       0.00000000       0.00000000       0.00000000       0.00000000       0.32581687
Pt       0.00000000       0.00000000       4.51010101       0.00000000       0.00000000      -0.32581687
2
Properties=species:S:1:pos:R:3:forces:R:3 energy=-91.73534864246757 pbc="F F F"
Pt       0.00000000       0.00000000       0.00000000       0.00000000       0.00000000       0.29023278
Pt       0.00000000       0.00000000       4.56969697       0.00000000       0.00000000      -0.29023278
2
Properties=species:S:1:pos:R:3:forces:R:3 energy=-91.71898259356746 pbc="F F F"
Pt       0.00000000       0.00000000       0.00000000       0.00000000       0.00000000       0.25984532
Pt       0.00000000       0.00000000       4.62929293       0.00000000       0.00000000      -0.25984532
2
Properties=species:S:1:pos:R:3:forces:R:3 energy=-91.7042656102383 pbc="F F F"
Pt       0.00000000       0.00000000       0.00000000       0.00000000       0.00000000       0.23498841
Pt       0.00000000       0.00000000       4.68888889       0.00000000       0.00000000      -0.23498841
2
Properties=species:S:1:pos:R:3:forces:R:3 energy=-91.69086218364635 pbc="F F F"
Pt       0.00000000       0.00000000       0.00000000       0.00000000       0.00000000       0.21555343
Pt       0.00000000       0.00000000       4.74848485       0.00000000       0.00000000      -0.21555343
2
Properties=species:S:1:pos:R:3:forces:R:3 energy=-91.67847499944786 pbc="F F F"
Pt       0.00000000       0.00000000       0.00000000       0.00000000       0.00000000       0.20094015
Pt       0.00000000       0.00000000       4.80808081       0.00000000       0.00000000      -0.20094015
2
Properties=species:S:1:pos:R:3:forces:R:3 energy=-91.66683731789801 pbc="F F F"
Pt       0.00000000       0.00000000       0.00000000       0.00000000       0.00000000       0.19009578
Pt       0.00000000       0.00000000       4.86767677       0.00000000       0.00000000      -0.19009578
2
Properties=species:S:1:pos:R:3:forces:R:3 energy=-91.6557739995037 pbc="F F F"
Pt       0.00000000       0.00000000       0.00000000       0.00000000       0.00000000       0.18164240
Pt       0.00000000       0.00000000       4.92727273       0.00000000       0.00000000      -0.18164240
2
Properties=species:S:1:pos:R:3:forces:R:3 energy=-91.64517098982124 pbc="F F F"
Pt       0.00000000       0.00000000       0.00000000       0.00000000       0.00000000       0.17407858
Pt       0.00000000       0.00000000       4.98686869       0.00000000       0.00000000      -0.17407858
2
Properties=species:S:1:pos:R:3:forces:R:3 energy=-91.63503635540462 pbc="F F F"
Pt       0.00000000       0.00000000       0.00000000       0.00000000       0.00000000       0.16596496
Pt       0.00000000       0.00000000       5.04646465       0.00000000       0.00000000      -0.16596496
2
Properties=species:S:1:pos:R:3:forces:R:3 energy=-91.62542397322912 pbc="F F F"
Pt       0.00000000       0.00000000       0.00000000       0.00000000       0.00000000       0.15606774
Pt       0.00000000       0.00000000       5.10606061       0.00000000       0.00000000      -0.15606774
2
Properties=species:S:1:pos:R:3:forces:R:3 energy=-91.61648694754035 pbc="F F F"
Pt       0.00000000       0.00000000       0.00000000       0.00000000       0.00000000       0.14339358
Pt       0.00000000       0.00000000       5.16565657       0.00000000       0.00000000      -0.14339358
2
Properties=species:S:1:pos:R:3:forces:R:3 energy=-91.60840893184032 pbc="F F F"
Pt       0.00000000       0.00000000       0.00000000       0.00000000       0.00000000       0.12711224
Pt       0.00000000       0.00000000       5.22525253       0.00000000       0.00000000      -0.12711224
2
Properties=species:S:1:pos:R:3:forces:R:3 energy=-91.60141937975685 pbc="F F F"
Pt       0.00000000       0.00000000       0.00000000       0.00000000       0.00000000       0.10658440
Pt       0.00000000       0.00000000       5.28484848       0.00000000       0.00000000      -0.10658440
2
Properties=species:S:1:pos:R:3:forces:R:3 energy=-91.59577828625457 pbc="F F F"
Pt       0.00000000       0.00000000       0.00000000       0.00000000       0.00000000       0.08245255
Pt       0.00000000       0.00000000       5.34444444       0.00000000       0.00000000      -0.08245255
2
Properties=species:S:1:pos:R:3:forces:R:3 energy=-91.59157017814343 pbc="F F F"
Pt       0.00000000       0.00000000       0.00000000       0.00000000       0.00000000       0.05983492
Pt       0.00000000       0.00000000       5.40404040       0.00000000       0.00000000      -0.05983492
2
Properties=species:S:1:pos:R:3:forces:R:3 energy=-91.58841419867048 pbc="F F F"
Pt       0.00000000       0.00000000       0.00000000       0.00000000       0.00000000       0.04829206
Pt       0.00000000       0.00000000       5.46363636       0.00000000       0.00000000      -0.04829206
2
Properties=species:S:1:pos:R:3:forces:R:3 energy=-91.58559379297161 pbc="F F F"
Pt       0.00000000       0.00000000       0.00000000       0.00000000       0.00000000       0.04699914
Pt       0.00000000       0.00000000       5.52323232       0.00000000       0.00000000      -0.04699914
2
Properties=species:S:1:pos:R:3:forces:R:3 energy=-91.58294171664932 pbc="F F F"
Pt       0.00000000       0.00000000       0.00000000       0.00000000       0.00000000       0.04013446
Pt       0.00000000       0.00000000       5.58282828       0.00000000       0.00000000      -0.04013446
2
Properties=species:S:1:pos:R:3:forces:R:3 energy=-91.58098497684578 pbc="F F F"
Pt       0.00000000       0.00000000       0.00000000       0.00000000       0.00000000       0.02515729
Pt       0.00000000       0.00000000       5.64242424       0.00000000       0.00000000      -0.02515729
2
Properties=species:S:1:pos:R:3:forces:R:3 energy=-91.57977754081917 pbc="F F F"
Pt       0.00000000       0.00000000       0.00000000       0.00000000       0.00000000       0.01834488
Pt       0.00000000       0.00000000       5.70202020       0.00000000       0.00000000      -0.01834488
2
Properties=species:S:1:pos:R:3:forces:R:3 energy=-91.57838152523628 pbc="F F F"
Pt       0.00000000       0.00000000       0.00000000       0.00000000       0.00000000       0.03112375
Pt       0.00000000       0.00000000       5.76161616       0.00000000       0.00000000      -0.03112375
2
Properties=species:S:1:pos:R:3:forces:R:3 energy=-91.57604974559318 pbc="F F F"
Pt       0.00000000       0.00000000       0.00000000       0.00000000       0.00000000       0.04431609
Pt       0.00000000       0.00000000       5.82121212       0.00000000       0.00000000      -0.04431609
2
Properties=species:S:1:pos:R:3:forces:R:3 energy=-91.57359900841881 pbc="F F F"
Pt       0.00000000       0.00000000       0.00000000       0.00000000       0.00000000       0.03431913
Pt       0.00000000       0.00000000       5.88080808       0.00000000       0.00000000      -0.03431913
2
Properties=species:S:1:pos:R:3:forces:R:3 energy=-91.57218177083591 pbc="F F F"
Pt       0.00000000       0.00000000       0.00000000       0.00000000       0.00000000       0.01303161
Pt       0.00000000       0.00000000       5.94040404       0.00000000       0.00000000      -0.01303161
2
Properties=species:S:1:pos:R:3:forces:R:3 energy=-91.57179840862737 pbc="F F F"
Pt       0.00000000       0.00000000       0.00000000       0.00000000       0.00000000       0.00319748
Pt       0.00000000       0.00000000       6.00000000       0.00000000       0.00000000      -0.00319748
