2
Properties=species:S:1:pos:R:3:forces:R:3 energy=-288044.6669652384 pbc="F F F"
Pt       0.00000000       0.00000000       0.00000000       0.00000000       0.00000000 -178230.62500000
Pt       0.00000000       0.00000000       0.18000000       0.00000000       0.00000000  178230.62500000
2
Properties=species:S:1:pos:R:3:forces:R:3 energy=-287353.0419652384 pbc="F F F"
Pt       0.00000000       0.00000000       0.00000000       0.00000000       0.00000000  179765.00000000
Pt       0.00000000       0.00000000       0.23878788       0.00000000       0.00000000 -179765.00000000
2
Properties=species:S:1:pos:R:3:forces:R:3 energy=-267110.2919652384 pbc="F F F"
Pt       0.00000000       0.00000000       0.00000000       0.00000000       0.00000000  516342.84375000
Pt       0.00000000       0.00000000       0.29757576       0.00000000       0.00000000 -516342.84375000
2
Properties=species:S:1:pos:R:3:forces:R:3 energy=-225281.0888402384 pbc="F F F"
Pt       0.00000000       0.00000000       0.00000000       0.00000000       0.00000000  979850.12500000
Pt       0.00000000       0.00000000       0.35636364       0.00000000       0.00000000 -979850.12500000
2
Properties=species:S:1:pos:R:3:forces:R:3 energy=-158891.57321523761 pbc="F F F"
Pt       0.00000000       0.00000000       0.00000000       0.00000000       0.00000000 1236660.25000000
Pt       0.00000000       0.00000000       0.41515152       0.00000000       0.00000000 -1236660.25000000
2
Properties=species:S:1:pos:R:3:forces:R:3 energy=-74074.50290273681 pbc="F F F"
Pt       0.00000000       0.00000000       0.00000000       0.00000000       0.00000000 1351677.62500000
Pt       0.00000000       0.00000000       0.47393939       0.00000000       0.00000000 -1351677.62500000
2
Properties=species:S:1:pos:R:3:forces:R:3 energy=-13871.514621484443 pbc="F F F"
Pt       0.00000000       0.00000000       0.00000000       0.00000000       0.00000000  641904.31250000
Pt       0.00000000       0.00000000       0.53272727       0.00000000       0.00000000 -641904.31250000
2
Properties=species:S:1:pos:R:3:forces:R:3 energy=3602.1797144570164 pbc="F F F"
Pt       0.00000000       0.00000000       0.00000000       0.00000000       0.00000000   34929.68359375
Pt       0.00000000       0.00000000       0.59151515       0.00000000       0.00000000  -34929.68359375
2
Properties=species:S:1:pos:R:3:forces:R:3 energy=942.1694605563102 pbc="F F F"
Pt       0.00000000       0.00000000       0.00000000       0.00000000       0.00000000  -54006.55859375
Pt       0.00000000       0.00000000       0.65030303       0.00000000       0.00000000   54006.55859375
2
Properties=species:S:1:pos:R:3:forces:R:3 energy=42.07757976747391 pbc="F F F"
Pt       0.00000000       0.00000000       0.00000000       0.00000000       0.00000000      16.84280777
Pt       0.00000000       0.00000000       0.70909091       0.00000000       0.00000000     -16.84280777
2
Properties=species:S:1:pos:R:3:forces:R:3 energy=37.530079171377544 pbc="F F F"
Pt       0.00000000       0.00000000       0.00000000       0.00000000       0.00000000     -26.74855423
Pt       0.00000000       0.00000000       0.76787879       0.00000000       0.00000000      26.74855423
2
Properties=species:S:1:pos:R:3:forces:R:3 energy=36.649326629283784 pbc="F F F"
Pt       0.00000000       0.00000000       0.00000000       0.00000000       0.00000000       4.39496899
Pt       0.00000000       0.00000000       0.82666667       0.00000000       0.00000000      -4.39496899
2
Properties=species:S:1:pos:R:3:forces:R:3 energy=37.31877551270911 pbc="F F F"
Pt       0.00000000       0.00000000       0.00000000       0.00000000       0.00000000     -54.68919373
Pt       0.00000000       0.00000000       0.88545455       0.00000000       0.00000000      54.68919373
2
Properties=species:S:1:pos:R:3:forces:R:3 energy=31.568836589839005 pbc="F F F"
Pt       0.00000000       0.00000000       0.00000000       0.00000000       0.00000000    -155.23446655
Pt       0.00000000       0.00000000       0.94424242       0.00000000       0.00000000     155.23446655
2
Properties=species:S:1:pos:R:3:forces:R:3 energy=16.86182065644082 pbc="F F F"
Pt       0.00000000       0.00000000       0.00000000       0.00000000       0.00000000    -276.02947998
Pt       0.00000000       0.00000000       1.00303030       0.00000000       0.00000000     276.02947998
2
Properties=species:S:1:pos:R:3:forces:R:3 energy=-0.2356371516897235 pbc="F F F"
Pt       0.00000000       0.00000000       0.00000000       0.00000000       0.00000000    -291.31121826
Pt       0.00000000       0.00000000       1.06181818       0.00000000       0.00000000     291.31121826
2
Properties=species:S:1:pos:R:3:forces:R:3 energy=-16.707187035736517 pbc="F F F"
Pt       0.00000000       0.00000000       0.00000000       0.00000000       0.00000000    -264.98043823
Pt       0.00000000       0.00000000       1.12060606       0.00000000       0.00000000     264.98043823
2
Properties=species:S:1:pos:R:3:forces:R:3 energy=-31.084815226728136 pbc="F F F"
Pt       0.00000000       0.00000000       0.00000000       0.00000000       0.00000000    -223.42623901
Pt       0.00000000       0.00000000       1.17939394       0.00000000       0.00000000     223.42623901
2
Properties=species:S:1:pos:R:3:forces:R:3 energy=-43.043009786747845 pbc="F F F"
Pt       0.00000000       0.00000000       0.00000000       0.00000000       0.00000000    -184.56021118
Pt       0.00000000       0.00000000       1.23818182       0.00000000       0.00000000     184.56021118
2
Properties=species:S:1:pos:R:3:forces:R:3 energy=-52.93397025915162 pbc="F F F"
Pt       0.00000000       0.00000000       0.00000000       0.00000000       0.00000000    -153.05247498
Pt       0.00000000       0.00000000       1.29696970       0.00000000       0.00000000     153.05247498
2
Properties=species:S:1:pos:R:3:forces:R:3 energy=-61.083956248265075 pbc="F F F"
Pt       0.00000000       0.00000000       0.00000000       0.00000000       0.00000000    -123.96640015
Pt       0.00000000       0.00000000       1.35575758       0.00000000       0.00000000     123.96640015
2
Properties=species:S:1:pos:R:3:forces:R:3 energy=-67.48821462941589 pbc="F F F"
Pt       0.00000000       0.00000000       0.00000000       0.00000000       0.00000000     -94.20868683
Pt       0.00000000       0.00000000       1.41454545       0.00000000       0.00000000      94.20868683
2
Properties=species:S:1:pos:R:3:forces:R:3 energy=-72.27739114109396 pbc="F F F"
Pt       0.00000000       0.00000000       0.00000000       0.00000000       0.00000000     -70.32003021
Pt       0.00000000       0.00000000       1.47333333       0.00000000       0.00000000      70.32003021
2
Properties=species:S:1:pos:R:3:forces:R:3 energy=-75.98390306799126 pbc="F F F"
Pt       0.00000000       0.00000000       0.00000000       0.00000000       0.00000000     -57.73579407
Pt       0.00000000       0.00000000       1.53212121       0.00000000       0.00000000      57.73579407
2
Properties=species:S:1:pos:R:3:forces:R:3 energy=-79.23410842332746 pbc="F F F"
Pt       0.00000000       0.00000000       0.00000000       0.00000000       0.00000000     -53.61828613
Pt       0.00000000       0.00000000       1.59090909       0.00000000       0.00000000      53.61828613
2
Properties=species:S:1:pos:R:3:forces:R:3 energy=-82.31219450974183 pbc="F F F"
Pt       0.00000000       0.00000000       0.00000000       0.00000000       0.00000000     -50.81927872
Pt       0.00000000       0.00000000       1.64969697       0.00000000       0.00000000      50.81927872
2
Properties=species:S:1:pos:R:3:forces:R:3 energy=-85.15653106237187 pbc="F F F"
Pt       0.00000000       0.00000000       0.00000000       0.00000000       0.00000000     -45.56037521
Pt       0.00000000       0.00000000       1.70848485       0.00000000       0.00000000      45.56037521
2
Properties=species:S:1:pos:R:3:forces:R:3 energy=-87.6382118201302 pbc="F F F"
Pt       0.00000000       0.00000000       0.00000000       0.00000000       0.00000000     -38.66508102
Pt       0.00000000       0.00000000       1.76727273       0.00000000       0.00000000      38.66508102
2
Properties=species:S:1:pos:R:3:forces:R:3 energy=-89.68285019108883 pbc="F F F"
Pt       0.00000000       0.00000000       0.00000000       0.00000000       0.00000000     -30.79771996
Pt       0.00000000       0.00000000       1.82606061       0.00000000       0.00000000      30.79771996
2
Properties=species:S:1:pos:R:3:forces:R:3 energy=-91.2611951082932 pbc="F F F"
Pt       0.00000000       0.00000000       0.00000000       0.00000000       0.00000000     -23.02654457
Pt       0.00000000       0.00000000       1.88484848       0.00000000       0.00000000      23.02654457
2
Properties=species:S:1:pos:R:3:forces:R:3 energy=-92.41415546599933 pbc="F F F"
Pt       0.00000000       0.00000000       0.00000000       0.00000000       0.00000000     -16.44709015
Pt       0.00000000       0.00000000       1.94363636       0.00000000       0.00000000      16.44709015
2
Properties=species:S:1:pos:R:3:forces:R:3 energy=-93.22519700985758 pbc="F F F"
Pt       0.00000000       0.00000000       0.00000000       0.00000000       0.00000000     -11.39260197
Pt       0.00000000       0.00000000       2.00242424       0.00000000       0.00000000      11.39260197
2
Properties=species:S:1:pos:R:3:forces:R:3 energy=-93.78016600629165 pbc="F F F"
Pt       0.00000000       0.00000000       0.00000000       0.00000000       0.00000000      -7.68980265
Pt       0.00000000       0.00000000       2.06121212       0.00000000       0.00000000       7.68980265
2
Properties=species:S:1:pos:R:3:forces:R:3 energy=-94.150611480296 pbc="F F F"
Pt       0.00000000       0.00000000       0.00000000       0.00000000       0.00000000      -5.07471085
Pt       0.00000000       0.00000000       2.12000000       0.00000000       0.00000000       5.07471085
2
Properties=species:S:1:pos:R:3:forces:R:3 energy=-94.39374718804845 pbc="F F F"
Pt       0.00000000       0.00000000       0.00000000       0.00000000       0.00000000      -3.32176328
Pt       0.00000000       0.00000000       2.17878788       0.00000000       0.00000000       3.32176328
2
Properties=species:S:1:pos:R:3:forces:R:3 energy=-94.55331395232021 pbc="F F F"
Pt       0.00000000       0.00000000       0.00000000       0.00000000       0.00000000      -2.18627405
Pt       0.00000000       0.00000000       2.23757576       0.00000000       0.00000000       2.18627405
2
Properties=species:S:1:pos:R:3:forces:R:3 energy=-94.65686385540835 pbc="F F F"
Pt       0.00000000       0.00000000       0.00000000       0.00000000       0.00000000      -1.36039424
Pt       0.00000000       0.00000000       2.29636364       0.00000000       0.00000000       1.36039424
2
Properties=species:S:1:pos:R:3:forces:R:3 energy=-94.71338025847602 pbc="F F F"
Pt       0.00000000       0.00000000       0.00000000       0.00000000       0.00000000      -0.54568434
Pt       0.00000000       0.00000000       2.35515152       0.00000000       0.00000000       0.54568434
2
Properties=species:S:1:pos:R:3:forces:R:3 energy=-94.71792454948508 pbc="F F F"
Pt       0.00000000       0.00000000       0.00000000       0.00000000       0.00000000       0.42292374
Pt       0.00000000       0.00000000       2.41393939       0.00000000       0.00000000      -0.42292374
2
Properties=species:S:1:pos:R:3:forces:R:3 energy=-94.66038730581339 pbc="F F F"
Pt       0.00000000       0.00000000       0.00000000       0.00000000       0.00000000       1.54731953
Pt       0.00000000       0.00000000       2.47272727       0.00000000       0.00000000      -1.54731953
2
Properties=species:S:1:pos:R:3:forces:R:3 energy=-94.53858694541827 pbc="F F F"
Pt       0.00000000       0.00000000       0.00000000       0.00000000       0.00000000       2.52972555
Pt       0.00000000       0.00000000       2.53151515       0.00000000       0.00000000      -2.52972555
2
Properties=species:S:1:pos:R:3:forces:R:3 energy=-94.375446277345 pbc="F F F"
Pt       0.00000000       0.00000000       0.00000000       0.00000000       0.00000000       2.89275050
Pt       0.00000000       0.00000000       2.59030303       0.00000000       0.00000000      -2.89275050
2
Properties=species:S:1:pos:R:3:forces:R:3 energy=-94.21167282819127 pbc="F F F"
Pt       0.00000000       0.00000000       0.00000000       0.00000000       0.00000000       2.60288525
Pt       0.00000000       0.00000000       2.64909091       0.00000000       0.00000000      -2.60288525
2
Properties=species:S:1:pos:R:3:forces:R:3 energy=-94.07271643064342 pbc="F F F"
Pt       0.00000000       0.00000000       0.00000000       0.00000000       0.00000000       2.13854289
Pt       0.00000000       0.00000000       2.70787879       0.00000000       0.00000000      -2.13854289
2
Properties=species:S:1:pos:R:3:forces:R:3 energy=-93.95593265706658 pbc="F F F"
Pt       0.00000000       0.00000000       0.00000000       0.00000000       0.00000000       1.87955689
Pt       0.00000000       0.00000000       2.76666667       0.00000000       0.00000000      -1.87955689
2
Properties=species:S:1:pos:R:3:forces:R:3 energy=-93.84723049062974 pbc="F F F"
Pt       0.00000000       0.00000000       0.00000000       0.00000000       0.00000000       1.84504020
Pt       0.00000000       0.00000000       2.82545455       0.00000000       0.00000000      -1.84504020
2
Properties=species:S:1:pos:R:3:forces:R:3 energy=-93.7374261770452 pbc="F F F"
Pt       0.00000000       0.00000000       0.00000000       0.00000000       0.00000000       1.89279282
Pt       0.00000000       0.00000000       2.88424242       0.00000000       0.00000000      -1.89279282
2
Properties=species:S:1:pos:R:3:forces:R:3 energy=-93.62517192358463 pbc="F F F"
Pt       0.00000000       0.00000000       0.00000000       0.00000000       0.00000000       1.91830206
Pt       0.00000000       0.00000000       2.94303030       0.00000000       0.00000000      -1.91830206
2
Properties=species:S:1:pos:R:3:forces:R:3 energy=-93.51279629642733 pbc="F F F"
Pt       0.00000000       0.00000000       0.00000000       0.00000000       0.00000000       1.89891267
Pt       0.00000000       0.00000000       3.00181818       0.00000000       0.00000000      -1.89891267
2
Properties=species:S:1:pos:R:3:forces:R:3 energy=-93.40221759347823 pbc="F F F"
Pt       0.00000000       0.00000000       0.00000000       0.00000000       0.00000000       1.86407530
Pt       0.00000000       0.00000000       3.06060606       0.00000000       0.00000000      -1.86407530
2
Properties=species:S:1:pos:R:3:forces:R:3 energy=-93.29310865518573 pbc="F F F"
Pt       0.00000000       0.00000000       0.00000000       0.00000000       0.00000000       1.85452104
Pt       0.00000000       0.00000000       3.11939394       0.00000000       0.00000000      -1.85452104
2
Properties=species:S:1:pos:R:3:forces:R:3 energy=-93.18337151763902 pbc="F F F"
Pt       0.00000000       0.00000000       0.00000000       0.00000000       0.00000000       1.88427329
Pt       0.00000000       0.00000000       3.17818182       0.00000000       0.00000000      -1.88427329
2
Properties=species:S:1:pos:R:3:forces:R:3 energy=-93.07127420294943 pbc="F F F"
Pt       0.00000000       0.00000000       0.00000000       0.00000000       0.00000000       1.92845464
Pt       0.00000000       0.00000000       3.23696970       0.00000000       0.00000000      -1.92845464
2
Properties=species:S:1:pos:R:3:forces:R:3 energy=-92.95712170870817 pbc="F F F"
Pt       0.00000000       0.00000000       0.00000000       0.00000000       0.00000000       1.94866192
Pt       0.00000000       0.00000000       3.29575758       0.00000000       0.00000000      -1.94866192
2
Properties=species:S:1:pos:R:3:forces:R:3 energy=-92.84307296112245 pbc="F F F"
Pt       0.00000000       0.00000000       0.00000000       0.00000000       0.00000000       1.92305303
Pt       0.00000000       0.00000000       3.35454545       0.00000000       0.00000000      -1.92305303
2
Properties=species:S:1:pos:R:3:forces:R:3 energy=-92.73192773257328 pbc="F F F"
Pt       0.00000000       0.00000000       0.00000000       0.00000000       0.00000000       1.85126233
Pt       0.00000000       0.00000000       3.41333333       0.00000000       0.00000000      -1.85126233
2
Properties=species:S:1:pos:R:3:forces:R:3 energy=-92.62612720677119 pbc="F F F"
Pt       0.00000000       0.00000000       0.00000000       0.00000000       0.00000000       1.74291670
Pt       0.00000000       0.00000000       3.47212121       0.00000000       0.00000000      -1.74291670
2
Properties=species:S:1:pos:R:3:forces:R:3 energy=-92.52750221586415 pbc="F F F"
Pt       0.00000000       0.00000000       0.00000000       0.00000000       0.00000000       1.60911334
Pt       0.00000000       0.00000000       3.53090909       0.00000000       0.00000000      -1.60911334
2
Properties=species:S:1:pos:R:3:forces:R:3 energy=-92.43721219577796 pbc="F F F"
Pt       0.00000000       0.00000000       0.00000000       0.00000000       0.00000000       1.46090543
Pt       0.00000000       0.00000000       3.58969697       0.00000000       0.00000000      -1.46090543
2
Properties=species:S:1:pos:R:3:forces:R:3 energy=-92.35579096733508 pbc="F F F"
Pt       0.00000000       0.00000000       0.00000000       0.00000000       0.00000000       1.30972362
Pt       0.00000000       0.00000000       3.64848485       0.00000000       0.00000000      -1.30972362
2
Properties=species:S:1:pos:R:3:forces:R:3 energy=-92.28307044864503 pbc="F F F"
Pt       0.00000000       0.00000000       0.00000000       0.00000000       0.00000000       1.16635692
Pt       0.00000000       0.00000000       3.70727273       0.00000000       0.00000000      -1.16635692
2
Properties=species:S:1:pos:R:3:forces:R:3 energy=-92.2183332414111 pbc="F F F"
Pt       0.00000000       0.00000000       0.00000000       0.00000000       0.00000000       1.03904843
Pt       0.00000000       0.00000000       3.76606061       0.00000000       0.00000000      -1.03904843
2
Properties=species:S:1:pos:R:3:forces:R:3 energy=-92.16050336579357 pbc="F F F"
Pt       0.00000000       0.00000000       0.00000000       0.00000000       0.00000000       0.93209046
Pt       0.00000000       0.00000000       3.82484848       0.00000000       0.00000000      -0.93209046
2
Properties=species:S:1:pos:R:3:forces:R:3 energy=-92.10834462545955 pbc="F F F"
Pt       0.00000000       0.00000000       0.00000000       0.00000000       0.00000000       0.84560513
Pt       0.00000000       0.00000000       3.88363636       0.00000000       0.00000000      -0.84560513
2
Properties=species:S:1:pos:R:3:forces:R:3 energy=-92.06073527845734 pbc="F F F"
Pt       0.00000000       0.00000000       0.00000000       0.00000000       0.00000000       0.77645850
Pt       0.00000000       0.00000000       3.94242424       0.00000000       0.00000000      -0.77645850
2
Properties=species:S:1:pos:R:3:forces:R:3 energy=-92.0168053544387 pbc="F F F"
Pt       0.00000000       0.00000000       0.00000000       0.00000000       0.00000000       0.71973324
Pt       0.00000000       0.00000000       4.00121212       0.00000000       0.00000000      -0.71973324
2
Properties=species:S:1:pos:R:3:forces:R:3 energy=-91.97597482380624 pbc="F F F"
Pt       0.00000000       0.00000000       0.00000000       0.00000000       0.00000000       0.67027783
Pt       0.00000000       0.00000000       4.06000000       0.00000000       0.00000000      -0.67027783
2
Properties=species:S:1:pos:R:3:forces:R:3 energy=-91.93793831358177 pbc="F F F"
Pt       0.00000000       0.00000000       0.00000000       0.00000000       0.00000000       0.62388819
Pt       0.00000000       0.00000000       4.11878788       0.00000000       0.00000000      -0.62388819
2
Properties=species:S:1:pos:R:3:forces:R:3 energy=-91.90261173173893 pbc="F F F"
Pt       0.00000000       0.00000000       0.00000000       0.00000000       0.00000000       0.57793379
Pt       0.00000000       0.00000000       4.17757576       0.00000000       0.00000000      -0.57793379
2
Properties=species:S:1:pos:R:3:forces:R:3 energy=-91.87000256274439 pbc="F F F"
Pt       0.00000000       0.00000000       0.00000000       0.00000000       0.00000000       0.53138858
Pt       0.00000000       0.00000000       4.23636364       0.00000000       0.00000000      -0.53138858
2
Properties=species:S:1:pos:R:3:forces:R:3 energy=-91.84014119033577 pbc="F F F"
Pt       0.00000000       0.00000000       0.00000000       0.00000000       0.00000000       0.48444608
Pt       0.00000000       0.00000000       4.29515152       0.00000000       0.00000000      -0.48444608
2
Properties=species:S:1:pos:R:3:forces:R:3 energy=-91.8130275321497 pbc="F F F"
Pt       0.00000000       0.00000000       0.00000000       0.00000000       0.00000000       0.43801707
Pt       0.00000000       0.00000000       4.35393939       0.00000000       0.00000000      -0.43801707
2
Properties=species:S:1:pos:R:3:forces:R:3 energy=-91.78860811114848 pbc="F F F"
Pt       0.00000000       0.00000000       0.00000000       0.00000000       0.00000000       0.39325681
Pt       0.00000000       0.00000000       4.41272727       0.00000000       0.00000000      -0.39325681
2
Properties=species:S:1:pos:R:3:forces:R:3 energy=-91.76673794349342 pbc="F F F"
Pt       0.00000000       0.00000000       0.00000000       0.00000000       0.00000000       0.35131627
Pt       0.00000000       0.00000000       4.47151515       0.00000000       0.00000000      -0.35131627
2
Properties=species:S:1:pos:R:3:forces:R:3 energy=-91.74722630620059 pbc="F F F"
Pt       0.00000000       0.00000000       0.00000000       0.00000000       0.00000000       0.31320894
Pt       0.00000000       0.00000000       4.53030303       0.00000000       0.00000000      -0.31320894
2
Properties=species:S:1:pos:R:3:forces:R:3 energy=-91.72982148231146 pbc="F F F"
Pt       0.00000000       0.00000000       0.00000000       0.00000000       0.00000000       0.27975044
Pt       0.00000000       0.00000000       4.58909091       0.00000000       0.00000000      -0.27975044
2
Properties=species:S:1:pos:R:3:forces:R:3 energy=-91.71423365066047 pbc="F F F"
Pt       0.00000000       0.00000000       0.00000000       0.00000000       0.00000000       0.25149697
Pt       0.00000000       0.00000000       4.64787879       0.00000000       0.00000000      -0.25149697
2
Properties=species:S:1:pos:R:3:forces:R:3 energy=-91.70014252160519 pbc="F F F"
Pt       0.00000000       0.00000000       0.00000000       0.00000000       0.00000000       0.22863987
Pt       0.00000000       0.00000000       4.70666667       0.00000000       0.00000000      -0.22863987
2
Properties=species:S:1:pos:R:3:forces:R:3 energy=-91.6872507388282 pbc="F F F"
Pt       0.00000000       0.00000000       0.00000000       0.00000000       0.00000000       0.21093896
Pt       0.00000000       0.00000000       4.76545455       0.00000000       0.00000000      -0.21093896
2
Properties=species:S:1:pos:R:3:forces:R:3 energy=-91.67525336888664 pbc="F F F"
Pt       0.00000000       0.00000000       0.00000000       0.00000000       0.00000000       0.19768052
Pt       0.00000000       0.00000000       4.82424242       0.00000000       0.00000000      -0.19768052
2
Properties=species:S:1:pos:R:3:forces:R:3 energy=-91.66394470798393 pbc="F F F"
Pt       0.00000000       0.00000000       0.00000000       0.00000000       0.00000000       0.18775032
Pt       0.00000000       0.00000000       4.88303030       0.00000000       0.00000000      -0.18775032
2
Properties=species:S:1:pos:R:3:forces:R:3 energy=-91.6531419872324 pbc="F F F"
Pt       0.00000000       0.00000000       0.00000000       0.00000000       0.00000000       0.17977332
Pt       0.00000000       0.00000000       4.94181818       0.00000000       0.00000000      -0.17977332
2
Properties=species:S:1:pos:R:3:forces:R:3 energy=-91.64279218021704 pbc="F F F"
Pt       0.00000000       0.00000000       0.00000000       0.00000000       0.00000000       0.17230490
Pt       0.00000000       0.00000000       5.00060606       0.00000000       0.00000000      -0.17230490
2
Properties=species:S:1:pos:R:3:forces:R:3 energy=-91.63290334478032 pbc="F F F"
Pt       0.00000000       0.00000000       0.00000000       0.00000000       0.00000000       0.16400681
Pt       0.00000000       0.00000000       5.05939394       0.00000000       0.00000000      -0.16400681
2
Properties=species:S:1:pos:R:3:forces:R:3 energy=-91.62354461272679 pbc="F F F"
Pt       0.00000000       0.00000000       0.00000000       0.00000000       0.00000000       0.15374261
Pt       0.00000000       0.00000000       5.11818182       0.00000000       0.00000000      -0.15374261
2
Properties=species:S:1:pos:R:3:forces:R:3 energy=-91.61488432887617 pbc="F F F"
Pt       0.00000000       0.00000000       0.00000000       0.00000000       0.00000000       0.14060524
Pt       0.00000000       0.00000000       5.17696970       0.00000000       0.00000000      -0.14060524
2
Properties=species:S:1:pos:R:3:forces:R:3 energy=-91.60709087051836 pbc="F F F"
Pt       0.00000000       0.00000000       0.00000000       0.00000000       0.00000000       0.12381322
Pt       0.00000000       0.00000000       5.23575758       0.00000000       0.00000000      -0.12381322
2
Properties=species:S:1:pos:R:3:forces:R:3 energy=-91.60040893264724 pbc="F F F"
Pt       0.00000000       0.00000000       0.00000000       0.00000000       0.00000000       0.10284403
Pt       0.00000000       0.00000000       5.29454545       0.00000000       0.00000000      -0.10284403
2
Properties=species:S:1:pos:R:3:forces:R:3 energy=-91.59506034187197 pbc="F F F"
Pt       0.00000000       0.00000000       0.00000000       0.00000000       0.00000000       0.07877127
Pt       0.00000000       0.00000000       5.35333333       0.00000000       0.00000000      -0.07877127
2
Properties=species:S:1:pos:R:3:forces:R:3 energy=-91.59109145743902 pbc="F F F"
Pt       0.00000000       0.00000000       0.00000000       0.00000000       0.00000000       0.05743274
Pt       0.00000000       0.00000000       5.41212121       0.00000000       0.00000000      -0.05743274
2
Properties=species:S:1:pos:R:3:forces:R:3 energy=-91.58806799069916 pbc="F F F"
Pt       0.00000000       0.00000000       0.00000000       0.00000000       0.00000000       0.04783923
Pt       0.00000000       0.00000000       5.47090909       0.00000000       0.00000000      -0.04783923
2
Properties=species:S:1:pos:R:3:forces:R:3 energy=-91.58528862142273 pbc="F F F"
Pt       0.00000000       0.00000000       0.00000000       0.00000000       0.00000000       0.04678506
Pt       0.00000000       0.00000000       5.52969697       0.00000000       0.00000000      -0.04678506
2
Properties=species:S:1:pos:R:3:forces:R:3 energy=-91.58271577244906 pbc="F F F"
Pt       0.00000000       0.00000000       0.00000000       0.00000000       0.00000000       0.03889676
Pt       0.00000000       0.00000000       5.58848485       0.00000000       0.00000000      -0.03889676
2
Properties=species:S:1:pos:R:3:forces:R:3 energy=-91.58086880687462 pbc="F F F"
Pt       0.00000000       0.00000000       0.00000000       0.00000000       0.00000000       0.02402160
Pt       0.00000000       0.00000000       5.64727273       0.00000000       0.00000000      -0.02402160
2
Properties=species:S:1:pos:R:3:forces:R:3 energy=-91.57970247894242 pbc="F F F"
Pt       0.00000000       0.00000000       0.00000000       0.00000000       0.00000000       0.01860610
Pt       0.00000000       0.00000000       5.70606061       0.00000000       0.00000000      -0.01860610
2
Properties=species:S:1:pos:R:3:forces:R:3 energy=-91.57827887878874 pbc="F F F"
Pt       0.00000000       0.00000000       0.00000000       0.00000000       0.00000000       0.03220851
Pt       0.00000000       0.00000000       5.76484848       0.00000000       0.00000000      -0.03220851
2
Properties=species:S:1:pos:R:3:forces:R:3 energy=-91.57594236118078 pbc="F F F"
Pt       0.00000000       0.00000000       0.00000000       0.00000000       0.00000000       0.04443984
Pt       0.00000000       0.00000000       5.82363636       0.00000000       0.00000000      -0.04443984
2
Properties=species:S:1:pos:R:3:forces:R:3 energy=-91.57354022409108 pbc="F F F"
Pt       0.00000000       0.00000000       0.00000000       0.00000000       0.00000000       0.03380635
Pt       0.00000000       0.00000000       5.88242424       0.00000000       0.00000000      -0.03380635
2
Properties=species:S:1:pos:R:3:forces:R:3 energy=-91.57217913045615 pbc="F F F"
Pt       0.00000000       0.00000000       0.00000000       0.00000000       0.00000000       0.01277132
Pt       0.00000000       0.00000000       5.94121212       0.00000000       0.00000000      -0.01277132
2
Properties=species:S:1:pos:R:3:forces:R:3 energy=-91.57179840862737 pbc="F F F"
Pt       0.00000000       0.00000000       0.00000000       0.00000000       0.00000000       0.00319748
Pt       0.00000000       0.00000000       6.00000000       0.00000000       0.00000000      -0.00319748
