2
Properties=species:S:1:pos:R:3:forces:R:3 energy=-288044.5732152384 pbc="F F F"
Pt       0.00000000       0.00000000       0.00000000       0.00000000       0.00000000 -178230.64062500
Pt       0.00000000       0.00000000       0.18000000       0.00000000       0.00000000  178230.64062500
2
Properties=species:S:1:pos:R:3:forces:R:3 energy=-287354.2919652384 pbc="F F F"
Pt       0.00000000       0.00000000       0.00000000       0.00000000       0.00000000  179766.23437500
Pt       0.00000000       0.00000000       0.23878788       0.00000000       0.00000000 -179766.23437500
2
Properties=species:S:1:pos:R:3:forces:R:3 energy=-267109.1982152384 pbc="F F F"
Pt       0.00000000       0.00000000       0.00000000       0.00000000       0.00000000  516341.12500000
Pt       0.00000000       0.00000000       0.29757576       0.00000000       0.00000000 -516341.12500000
2
Properties=species:S:1:pos:R:3:forces:R:3 energy=-225281.7919652384 pbc="F F F"
Pt       0.00000000       0.00000000       0.00000000       0.00000000       0.00000000  979852.37500000
Pt       0.00000000       0.00000000       0.35636364       0.00000000       0.00000000 -979852.37500000
2
Properties=species:S:1:pos:R:3:forces:R:3 energy=-158892.16696523761 pbc="F F F"
Pt       0.00000000       0.00000000       0.00000000       0.00000000       0.00000000 1236664.25000000
Pt       0.00000000       0.00000000       0.41515152       0.00000000       0.00000000 -1236664.25000000
2
Properties=species:S:1:pos:R:3:forces:R:3 energy=-74074.80759023681 pbc="F F F"
Pt       0.00000000       0.00000000       0.00000000       0.00000000       0.00000000 1351682.25000000
Pt       0.00000000       0.00000000       0.47393939       0.00000000       0.00000000 -1351682.25000000
2
Properties=species:S:1:pos:R:3:forces:R:3 energy=-13871.540988671943 pbc="F F F"
Pt       0.00000000       0.00000000       0.00000000       0.00000000       0.00000000  641904.56250000
Pt       0.00000000       0.00000000       0.53272727       0.00000000       0.00000000 -641904.56250000
2
Properties=species:S:1:pos:R:3:forces:R:3 energy=3602.1623804726414 pbc="F F F"
Pt       0.00000000       0.00000000       0.00000000       0.00000000       0.00000000   34931.00781250
Pt       0.00000000       0.00000000       0.59151515       0.00000000       0.00000000  -34931.00781250
2
Properties=species:S:1:pos:R:3:forces:R:3 energy=942.1596949313102 pbc="F F F"
Pt       0.00000000       0.00000000       0.00000000       0.00000000       0.00000000  -54006.26171875
Pt       0.00000000       0.00000000       0.65030303       0.00000000       0.00000000   54006.26171875
2
Properties=species:S:1:pos:R:3:forces:R:3 energy=42.07745769716141 pbc="F F F"
Pt       0.00000000       0.00000000       0.00000000       0.00000000       0.00000000      16.84320450
Pt       0.00000000       0.00000000       0.70909091       0.00000000       0.00000000     -16.84320450
2
Properties=species:S:1:pos:R:3:forces:R:3 energy=37.52994184227598 pbc="F F F"
Pt       0.00000000       0.00000000       0.00000000       0.00000000       0.00000000     -26.74819565
Pt       0.00000000       0.00000000       0.76787879       0.00000000       0.00000000      26.74819565
2
Properties=species:S:1:pos:R:3:forces:R:3 energy=36.64949447596347 pbc="F F F"
Pt       0.00000000       0.00000000       0.00000000       0.00000000       0.00000000       4.39528370
Pt       0.00000000       0.00000000       0.82666667       0.00000000       0.00000000      -4.39528370
2
Properties=species:S:1:pos:R:3:forces:R:3 energy=37.31888232423255 pbc="F F F"
Pt       0.00000000       0.00000000       0.00000000       0.00000000       0.00000000     -54.68962097
Pt       0.00000000       0.00000000       0.88545455       0.00000000       0.00000000      54.68962097
2
Properties=species:S:1:pos:R:3:forces:R:3 energy=31.56887473681166 pbc="F F F"
Pt       0.00000000       0.00000000       0.00000000       0.00000000       0.00000000    -155.23379517
Pt       0.00000000       0.00000000       0.94424242       0.00000000       0.00000000     155.23379517
2
Properties=species:S:1:pos:R:3:forces:R:3 energy=16.861904579780663 pbc="F F F"
Pt       0.00000000       0.00000000       0.00000000       0.00000000       0.00000000    -276.02932739
Pt       0.00000000       0.00000000       1.00303030       0.00000000       0.00000000     276.02932739
2
Properties=species:S:1:pos:R:3:forces:R:3 energy=-0.235682928056911 pbc="F F F"
Pt       0.00000000       0.00000000       0.00000000       0.00000000       0.00000000    -291.31130981
Pt       0.00000000       0.00000000       1.06181818       0.00000000       0.00000000     291.31130981
2
Properties=species:S:1:pos:R:3:forces:R:3 energy=-16.70720229452558 pbc="F F F"
Pt       0.00000000       0.00000000       0.00000000       0.00000000       0.00000000    -264.98043823
Pt       0.00000000       0.00000000       1.12060606       0.00000000       0.00000000     264.98043823
2
Properties=species:S:1:pos:R:3:forces:R:3 energy=-31.0848190414254 pbc="F F F"
Pt       0.00000000       0.00000000       0.00000000       0.00000000       0.00000000    -223.42622375
Pt       0.00000000       0.00000000       1.17939394       0.00000000       0.00000000     223.42622375
2
Properties=species:S:1:pos:R:3:forces:R:3 energy=-43.043036489628705 pbc="F F F"
Pt       0.00000000       0.00000000       0.00000000       0.00000000       0.00000000    -184.56008911
Pt       0.00000000       0.00000000       1.23818182       0.00000000       0.00000000     184.56008911
2
Properties=species:S:1:pos:R:3:forces:R:3 energy=-52.933958815059825 pbc="F F F"
Pt       0.00000000       0.00000000       0.00000000       0.00000000       0.00000000    -153.05245972
Pt       0.00000000       0.00000000       1.29696970       0.00000000       0.00000000     153.05245972
2
Properties=species:S:1:pos:R:3:forces:R:3 energy=-61.08394480417328 pbc="F F F"
Pt       0.00000000       0.00000000       0.00000000       0.00000000       0.00000000    -123.96640015
Pt       0.00000000       0.00000000       1.35575758       0.00000000       0.00000000     123.96640015
2
Properties=species:S:1:pos:R:3:forces:R:3 energy=-67.48820700002136 pbc="F F F"
Pt       0.00000000       0.00000000       0.00000000       0.00000000       0.00000000     -94.20863342
Pt       0.00000000       0.00000000       1.41454545       0.00000000       0.00000000      94.20863342
2
Properties=species:S:1:pos:R:3:forces:R:3 energy=-72.27738351249138 pbc="F F F"
Pt       0.00000000       0.00000000       0.00000000       0.00000000       0.00000000     -70.32018280
Pt       0.00000000       0.00000000       1.47333333       0.00000000       0.00000000      70.32018280
2
Properties=species:S:1:pos:R:3:forces:R:3 energy=-75.98389543859673 pbc="F F F"
Pt       0.00000000       0.00000000       0.00000000       0.00000000       0.00000000     -57.73580170
Pt       0.00000000       0.00000000       1.53212121       0.00000000       0.00000000      57.73580170
2
Properties=species:S:1:pos:R:3:forces:R:3 energy=-79.23411605272199 pbc="F F F"
Pt       0.00000000       0.00000000       0.00000000       0.00000000       0.00000000     -53.61823654
Pt       0.00000000       0.00000000       1.59090909       0.00000000       0.00000000      53.61823654
2
Properties=species:S:1:pos:R:3:forces:R:3 energy=-82.31219450974183 pbc="F F F"
Pt       0.00000000       0.00000000       0.00000000       0.00000000       0.00000000     -50.81927490
Pt       0.00000000       0.00000000       1.64969697       0.00000000       0.00000000      50.81927490
2
Properties=species:S:1:pos:R:3:forces:R:3 energy=-85.15653106237187 pbc="F F F"
Pt       0.00000000       0.00000000       0.00000000       0.00000000       0.00000000     -45.56039429
Pt       0.00000000       0.00000000       1.70848485       0.00000000       0.00000000      45.56039429
2
Properties=species:S:1:pos:R:3:forces:R:3 energy=-87.63821182092215 pbc="F F F"
Pt       0.00000000       0.00000000       0.00000000       0.00000000       0.00000000     -38.66508484
Pt       0.00000000       0.00000000       1.76727273       0.00000000       0.00000000      38.66508484
2
Properties=species:S:1:pos:R:3:forces:R:3 energy=-89.68285019108883 pbc="F F F"
Pt       0.00000000       0.00000000       0.00000000       0.00000000       0.00000000     -30.79772186
Pt       0.00000000       0.00000000       1.82606061       0.00000000       0.00000000      30.79772186
2
Properties=species:S:1:pos:R:3:forces:R:3 energy=-91.26120273768773 pbc="F F F"
Pt       0.00000000       0.00000000       0.00000000       0.00000000       0.00000000     -23.02649307
Pt       0.00000000       0.00000000       1.88484848       0.00000000       0.00000000      23.02649307
2
Properties=species:S:1:pos:R:3:forces:R:3 energy=-92.41416309539386 pbc="F F F"
Pt       0.00000000       0.00000000       0.00000000       0.00000000       0.00000000     -16.44709778
Pt       0.00000000       0.00000000       1.94363636       0.00000000       0.00000000      16.44709778
2
Properties=species:S:1:pos:R:3:forces:R:3 energy=-93.22519700985758 pbc="F F F"
Pt       0.00000000       0.00000000       0.00000000       0.00000000       0.00000000     -11.39260197
Pt       0.00000000       0.00000000       2.00242424       0.00000000       0.00000000      11.39260197
2
Properties=species:S:1:pos:R:3:forces:R:3 energy=-93.78016600629165 pbc="F F F"
Pt       0.00000000       0.00000000       0.00000000       0.00000000       0.00000000      -7.68980598
Pt       0.00000000       0.00000000       2.06121212       0.00000000       0.00000000       7.68980598
2
Properties=species:S:1:pos:R:3:forces:R:3 energy=-94.15060385090148 pbc="F F F"
Pt       0.00000000       0.00000000       0.00000000       0.00000000       0.00000000      -5.07471800
Pt       0.00000000       0.00000000       2.12000000       0.00000000       0.00000000       5.07471800
2
Properties=species:S:1:pos:R:3:forces:R:3 energy=-94.39374718804845 pbc="F F F"
Pt       0.00000000       0.00000000       0.00000000       0.00000000       0.00000000      -3.32176447
Pt       0.00000000       0.00000000       2.17878788       0.00000000       0.00000000       3.32176447
2
Properties=species:S:1:pos:R:3:forces:R:3 energy=-94.55331395232021 pbc="F F F"
Pt       0.00000000       0.00000000       0.00000000       0.00000000       0.00000000      -2.18627524
Pt       0.00000000       0.00000000       2.23757576       0.00000000       0.00000000       2.18627524
2
Properties=species:S:1:pos:R:3:forces:R:3 energy=-94.65686385540835 pbc="F F F"
Pt       0.00000000       0.00000000       0.00000000       0.00000000       0.00000000      -1.36039424
Pt       0.00000000       0.00000000       2.29636364       0.00000000       0.00000000       1.36039424
2
Properties=species:S:1:pos:R:3:forces:R:3 energy=-94.71338025847602 pbc="F F F"
Pt       0.00000000       0.00000000       0.00000000       0.00000000       0.00000000      -0.54568154
Pt       0.00000000       0.00000000       2.35515152       0.00000000       0.00000000       0.54568154
2
Properties=species:S:1:pos:R:3:forces:R:3 energy=-94.71792454948508 pbc="F F F"
Pt       0.00000000       0.00000000       0.00000000       0.00000000       0.00000000       0.42292586
Pt       0.00000000       0.00000000       2.41393939       0.00000000       0.00000000      -0.42292586
2
Properties=species:S:1:pos:R:3:forces:R:3 energy=-94.66038730581339 pbc="F F F"
Pt       0.00000000       0.00000000       0.00000000       0.00000000       0.00000000       1.54731762
Pt       0.00000000       0.00000000       2.47272727       0.00000000       0.00000000      -1.54731762
2
Properties=species:S:1:pos:R:3:forces:R:3 energy=-94.53859457560476 pbc="F F F"
Pt       0.00000000       0.00000000       0.00000000       0.00000000       0.00000000       2.52972126
Pt       0.00000000       0.00000000       2.53151515       0.00000000       0.00000000      -2.52972126
2
Properties=species:S:1:pos:R:3:forces:R:3 energy=-94.375446277345 pbc="F F F"
Pt       0.00000000       0.00000000       0.00000000       0.00000000       0.00000000       2.89274907
Pt       0.00000000       0.00000000       2.59030303       0.00000000       0.00000000      -2.89274907
2
Properties=species:S:1:pos:R:3:forces:R:3 energy=-94.21167282819127 pbc="F F F"
Pt       0.00000000       0.00000000       0.00000000       0.00000000       0.00000000       2.60288548
Pt       0.00000000       0.00000000       2.64909091       0.00000000       0.00000000      -2.60288548
2
Properties=species:S:1:pos:R:3:forces:R:3 energy=-94.07271643381124 pbc="F F F"
Pt       0.00000000       0.00000000       0.00000000       0.00000000       0.00000000       2.13853979
Pt       0.00000000       0.00000000       2.70787879       0.00000000       0.00000000      -2.13853979
2
Properties=species:S:1:pos:R:3:forces:R:3 energy=-93.95593265706658 pbc="F F F"
Pt       0.00000000       0.00000000       0.00000000       0.00000000       0.00000000       1.87955737
Pt       0.00000000       0.00000000       2.76666667       0.00000000       0.00000000      -1.87955737
2
Properties=species:S:1:pos:R:3:forces:R:3 energy=-93.84723048983778 pbc="F F F"
Pt       0.00000000       0.00000000       0.00000000       0.00000000       0.00000000       1.84504128
Pt       0.00000000       0.00000000       2.82545455       0.00000000       0.00000000      -1.84504128
2
Properties=species:S:1:pos:R:3:forces:R:3 energy=-93.73742617862911 pbc="F F F"
Pt       0.00000000       0.00000000       0.00000000       0.00000000       0.00000000       1.89279222
Pt       0.00000000       0.00000000       2.88424242       0.00000000       0.00000000      -1.89279222
2
Properties=species:S:1:pos:R:3:forces:R:3 energy=-93.62517955297916 pbc="F F F"
Pt       0.00000000       0.00000000       0.00000000       0.00000000       0.00000000       1.91830134
Pt       0.00000000       0.00000000       2.94303030       0.00000000       0.00000000      -1.91830134
2
Properties=species:S:1:pos:R:3:forces:R:3 energy=-93.51279629642733 pbc="F F F"
Pt       0.00000000       0.00000000       0.00000000       0.00000000       0.00000000       1.89891338
Pt       0.00000000       0.00000000       3.00181818       0.00000000       0.00000000      -1.89891338
2
Properties=species:S:1:pos:R:3:forces:R:3 energy=-93.40221759506214 pbc="F F F"
Pt       0.00000000       0.00000000       0.00000000       0.00000000       0.00000000       1.86407554
Pt       0.00000000       0.00000000       3.06060606       0.00000000       0.00000000      -1.86407554
2
Properties=species:S:1:pos:R:3:forces:R:3 energy=-93.29310865518573 pbc="F F F"
Pt       0.00000000       0.00000000       0.00000000       0.00000000       0.00000000       1.85452318
Pt       0.00000000       0.00000000       3.11939394       0.00000000       0.00000000      -1.85452318
2
Properties=species:S:1:pos:R:3:forces:R:3 energy=-93.18337151763902 pbc="F F F"
Pt       0.00000000       0.00000000       0.00000000       0.00000000       0.00000000       1.88427424
Pt       0.00000000       0.00000000       3.17818182       0.00000000       0.00000000      -1.88427424
2
Properties=species:S:1:pos:R:3:forces:R:3 energy=-93.07127420294943 pbc="F F F"
Pt       0.00000000       0.00000000       0.00000000       0.00000000       0.00000000       1.92845428
Pt       0.00000000       0.00000000       3.23696970       0.00000000       0.00000000      -1.92845428
2
Properties=species:S:1:pos:R:3:forces:R:3 energy=-92.95712170870817 pbc="F F F"
Pt       0.00000000       0.00000000       0.00000000       0.00000000       0.00000000       1.94866216
Pt       0.00000000       0.00000000       3.29575758       0.00000000       0.00000000      -1.94866216
2
Properties=species:S:1:pos:R:3:forces:R:3 energy=-92.84307296112245 pbc="F F F"
Pt       0.00000000       0.00000000       0.00000000       0.00000000       0.00000000       1.92305517
Pt       0.00000000       0.00000000       3.35454545       0.00000000       0.00000000      -1.92305517
2
Properties=species:S:1:pos:R:3:forces:R:3 energy=-92.73192773257328 pbc="F F F"
Pt       0.00000000       0.00000000       0.00000000       0.00000000       0.00000000       1.85126209
Pt       0.00000000       0.00000000       3.41333333       0.00000000       0.00000000      -1.85126209
2
Properties=species:S:1:pos:R:3:forces:R:3 energy=-92.62612720677119 pbc="F F F"
Pt       0.00000000       0.00000000       0.00000000       0.00000000       0.00000000       1.74291718
Pt       0.00000000       0.00000000       3.47212121       0.00000000       0.00000000      -1.74291718
2
Properties=species:S:1:pos:R:3:forces:R:3 energy=-92.52750221586415 pbc="F F F"
Pt       0.00000000       0.00000000       0.00000000       0.00000000       0.00000000       1.60911322
Pt       0.00000000       0.00000000       3.53090909       0.00000000       0.00000000      -1.60911322
2
Properties=species:S:1:pos:R:3:forces:R:3 energy=-92.43721982517249 pbc="F F F"
Pt       0.00000000       0.00000000       0.00000000       0.00000000       0.00000000       1.46090603
Pt       0.00000000       0.00000000       3.58969697       0.00000000       0.00000000      -1.46090603
2
Properties=species:S:1:pos:R:3:forces:R:3 energy=-92.35579096733508 pbc="F F F"
Pt       0.00000000       0.00000000       0.00000000       0.00000000       0.00000000       1.30972409
Pt       0.00000000       0.00000000       3.64848485       0.00000000       0.00000000      -1.30972409
2
Properties=species:S:1:pos:R:3:forces:R:3 energy=-92.28307044864503 pbc="F F F"
Pt       0.00000000       0.00000000       0.00000000       0.00000000       0.00000000       1.16635740
Pt       0.00000000       0.00000000       3.70727273       0.00000000       0.00000000      -1.16635740
2
Properties=species:S:1:pos:R:3:forces:R:3 energy=-92.2183332414111 pbc="F F F"
Pt       0.00000000       0.00000000       0.00000000       0.00000000       0.00000000       1.03905082
Pt       0.00000000       0.00000000       3.76606061       0.00000000       0.00000000      -1.03905082
2
Properties=species:S:1:pos:R:3:forces:R:3 energy=-92.16050336500162 pbc="F F F"
Pt       0.00000000       0.00000000       0.00000000       0.00000000       0.00000000       0.93209177
Pt       0.00000000       0.00000000       3.82484848       0.00000000       0.00000000      -0.93209177
2
Properties=species:S:1:pos:R:3:forces:R:3 energy=-92.10834462545955 pbc="F F F"
Pt       0.00000000       0.00000000       0.00000000       0.00000000       0.00000000       0.84560609
Pt       0.00000000       0.00000000       3.88363636       0.00000000       0.00000000      -0.84560609
2
Properties=species:S:1:pos:R:3:forces:R:3 energy=-92.06073527845734 pbc="F F F"
Pt       0.00000000       0.00000000       0.00000000       0.00000000       0.00000000       0.77645802
Pt       0.00000000       0.00000000       3.94242424       0.00000000       0.00000000      -0.77645802
2
Properties=species:S:1:pos:R:3:forces:R:3 energy=-92.0168053544387 pbc="F F F"
Pt       0.00000000       0.00000000       0.00000000       0.00000000       0.00000000       0.71973389
Pt       0.00000000       0.00000000       4.00121212       0.00000000       0.00000000      -0.71973389
2
Properties=species:S:1:pos:R:3:forces:R:3 energy=-91.97597482380624 pbc="F F F"
Pt       0.00000000       0.00000000       0.00000000       0.00000000       0.00000000       0.67027658
Pt       0.00000000       0.00000000       4.06000000       0.00000000       0.00000000      -0.67027658
2
Properties=species:S:1:pos:R:3:forces:R:3 energy=-91.93793831358177 pbc="F F F"
Pt       0.00000000       0.00000000       0.00000000       0.00000000       0.00000000       0.62388891
Pt       0.00000000       0.00000000       4.11878788       0.00000000       0.00000000      -0.62388891
2
Properties=species:S:1:pos:R:3:forces:R:3 energy=-91.90261173173893 pbc="F F F"
Pt       0.00000000       0.00000000       0.00000000       0.00000000       0.00000000       0.57793379
Pt       0.00000000       0.00000000       4.17757576       0.00000000       0.00000000      -0.57793379
2
Properties=species:S:1:pos:R:3:forces:R:3 energy=-91.87000256036852 pbc="F F F"
Pt       0.00000000       0.00000000       0.00000000       0.00000000       0.00000000       0.53138846
Pt       0.00000000       0.00000000       4.23636364       0.00000000       0.00000000      -0.53138846
2
Properties=species:S:1:pos:R:3:forces:R:3 energy=-91.84014119033577 pbc="F F F"
Pt       0.00000000       0.00000000       0.00000000       0.00000000       0.00000000       0.48444638
Pt       0.00000000       0.00000000       4.29515152       0.00000000       0.00000000      -0.48444638
2
Properties=species:S:1:pos:R:3:forces:R:3 energy=-91.8130275321497 pbc="F F F"
Pt       0.00000000       0.00000000       0.00000000       0.00000000       0.00000000       0.43801653
Pt       0.00000000       0.00000000       4.35393939       0.00000000       0.00000000      -0.43801653
2
Properties=species:S:1:pos:R:3:forces:R:3 energy=-91.78860810956456 pbc="F F F"
Pt       0.00000000       0.00000000       0.00000000       0.00000000       0.00000000       0.39325646
Pt       0.00000000       0.00000000       4.41272727       0.00000000       0.00000000      -0.39325646
2
Properties=species:S:1:pos:R:3:forces:R:3 energy=-91.76673794349342 pbc="F F F"
Pt       0.00000000       0.00000000       0.00000000       0.00000000       0.00000000       0.35131705
Pt       0.00000000       0.00000000       4.47151515       0.00000000       0.00000000      -0.35131705
2
Properties=species:S:1:pos:R:3:forces:R:3 energy=-91.74722630620059 pbc="F F F"
Pt       0.00000000       0.00000000       0.00000000       0.00000000       0.00000000       0.31320876
Pt       0.00000000       0.00000000       4.53030303       0.00000000       0.00000000      -0.31320876
2
Properties=species:S:1:pos:R:3:forces:R:3 energy=-91.72982148072755 pbc="F F F"
Pt       0.00000000       0.00000000       0.00000000       0.00000000       0.00000000       0.27975073
Pt       0.00000000       0.00000000       4.58909091       0.00000000       0.00000000      -0.27975073
2
Properties=species:S:1:pos:R:3:forces:R:3 energy=-91.71423365066047 pbc="F F F"
Pt       0.00000000       0.00000000       0.00000000       0.00000000       0.00000000       0.25149640
Pt       0.00000000       0.00000000       4.64787879       0.00000000       0.00000000      -0.25149640
2
Properties=species:S:1:pos:R:3:forces:R:3 energy=-91.70014252160519 pbc="F F F"
Pt       0.00000000       0.00000000       0.00000000       0.00000000       0.00000000       0.22864185
Pt       0.00000000       0.00000000       4.70666667       0.00000000       0.00000000      -0.22864185
2
Properties=species:S:1:pos:R:3:forces:R:3 energy=-91.6872507388282 pbc="F F F"
Pt       0.00000000       0.00000000       0.00000000       0.00000000       0.00000000       0.21093962
Pt       0.00000000       0.00000000       4.76545455       0.00000000       0.00000000      -0.21093962
2
Properties=species:S:1:pos:R:3:forces:R:3 energy=-91.67525336888664 pbc="F F F"
Pt       0.00000000       0.00000000       0.00000000       0.00000000       0.00000000       0.19768021
Pt       0.00000000       0.00000000       4.82424242       0.00000000       0.00000000      -0.19768021
2
Properties=species:S:1:pos:R:3:forces:R:3 energy=-91.66394470798393 pbc="F F F"
Pt       0.00000000       0.00000000       0.00000000       0.00000000       0.00000000       0.18774967
Pt       0.00000000       0.00000000       4.88303030       0.00000000       0.00000000      -0.18774967
2
Properties=species:S:1:pos:R:3:forces:R:3 energy=-91.6531419872324 pbc="F F F"
Pt       0.00000000       0.00000000       0.00000000       0.00000000       0.00000000       0.17977078
Pt       0.00000000       0.00000000       4.94181818       0.00000000       0.00000000      -0.17977078
2
Properties=species:S:1:pos:R:3:forces:R:3 energy=-91.64279218021704 pbc="F F F"
Pt       0.00000000       0.00000000       0.00000000       0.00000000       0.00000000       0.17230609
Pt       0.00000000       0.00000000       5.00060606       0.00000000       0.00000000      -0.17230609
2
Properties=species:S:1:pos:R:3:forces:R:3 energy=-91.63290334478032 pbc="F F F"
Pt       0.00000000       0.00000000       0.00000000       0.00000000       0.00000000       0.16400476
Pt       0.00000000       0.00000000       5.05939394       0.00000000       0.00000000      -0.16400476
2
Properties=species:S:1:pos:R:3:forces:R:3 energy=-91.62355224212132 pbc="F F F"
Pt       0.00000000       0.00000000       0.00000000       0.00000000       0.00000000       0.15374288
Pt       0.00000000       0.00000000       5.11818182       0.00000000       0.00000000      -0.15374288
2
Properties=species:S:1:pos:R:3:forces:R:3 energy=-91.61488432729226 pbc="F F F"
Pt       0.00000000       0.00000000       0.00000000       0.00000000       0.00000000       0.14060432
Pt       0.00000000       0.00000000       5.17696970       0.00000000       0.00000000      -0.14060432
2
Properties=species:S:1:pos:R:3:forces:R:3 energy=-91.60709087051836 pbc="F F F"
Pt       0.00000000       0.00000000       0.00000000       0.00000000       0.00000000       0.12381249
Pt       0.00000000       0.00000000       5.23575758       0.00000000       0.00000000      -0.12381249
2
Properties=species:S:1:pos:R:3:forces:R:3 energy=-91.60040893264724 pbc="F F F"
Pt       0.00000000       0.00000000       0.00000000       0.00000000       0.00000000       0.10284413
Pt       0.00000000       0.00000000       5.29454545       0.00000000       0.00000000      -0.10284413
2
Properties=species:S:1:pos:R:3:forces:R:3 energy=-91.59506034108001 pbc="F F F"
Pt       0.00000000       0.00000000       0.00000000       0.00000000       0.00000000       0.07877088
Pt       0.00000000       0.00000000       5.35333333       0.00000000       0.00000000      -0.07877088
2
Properties=species:S:1:pos:R:3:forces:R:3 energy=-91.59109145743902 pbc="F F F"
Pt       0.00000000       0.00000000       0.00000000       0.00000000       0.00000000       0.05743516
Pt       0.00000000       0.00000000       5.41212121       0.00000000       0.00000000      -0.05743516
2
Properties=species:S:1:pos:R:3:forces:R:3 energy=-91.58806799069916 pbc="F F F"
Pt       0.00000000       0.00000000       0.00000000       0.00000000       0.00000000       0.04783962
Pt       0.00000000       0.00000000       5.47090909       0.00000000       0.00000000      -0.04783962
2
Properties=species:S:1:pos:R:3:forces:R:3 energy=-91.58528861944284 pbc="F F F"
Pt       0.00000000       0.00000000       0.00000000       0.00000000       0.00000000       0.04678528
Pt       0.00000000       0.00000000       5.52969697       0.00000000       0.00000000      -0.04678528
2
Properties=species:S:1:pos:R:3:forces:R:3 energy=-91.58271577244906 pbc="F F F"
Pt       0.00000000       0.00000000       0.00000000       0.00000000       0.00000000       0.03889608
Pt       0.00000000       0.00000000       5.58848485       0.00000000       0.00000000      -0.03889608
2
Properties=species:S:1:pos:R:3:forces:R:3 energy=-91.58086880687462 pbc="F F F"
Pt       0.00000000       0.00000000       0.00000000       0.00000000       0.00000000       0.02402904
Pt       0.00000000       0.00000000       5.64727273       0.00000000       0.00000000      -0.02402904
2
Properties=species:S:1:pos:R:3:forces:R:3 energy=-91.57970247735852 pbc="F F F"
Pt       0.00000000       0.00000000       0.00000000       0.00000000       0.00000000       0.01860762
Pt       0.00000000       0.00000000       5.70606061       0.00000000       0.00000000      -0.01860762
2
Properties=species:S:1:pos:R:3:forces:R:3 energy=-91.57827887878874 pbc="F F F"
Pt       0.00000000       0.00000000       0.00000000       0.00000000       0.00000000       0.03220523
Pt       0.00000000       0.00000000       5.76484848       0.00000000       0.00000000      -0.03220523
2
Properties=species:S:1:pos:R:3:forces:R:3 energy=-91.57594236118078 pbc="F F F"
Pt       0.00000000       0.00000000       0.00000000       0.00000000       0.00000000       0.04446586
Pt       0.00000000       0.00000000       5.82363636       0.00000000       0.00000000      -0.04446586
2
Properties=species:S:1:pos:R:3:forces:R:3 energy=-91.57354022250716 pbc="F F F"
Pt       0.00000000       0.00000000       0.00000000       0.00000000       0.00000000       0.03379986
Pt       0.00000000       0.00000000       5.88242424       0.00000000       0.00000000      -0.03379986
2
Properties=species:S:1:pos:R:3:forces:R:3 energy=-91.57217913045615 pbc="F F F"
Pt       0.00000000       0.00000000       0.00000000       0.00000000       0.00000000       0.01275365
Pt       0.00000000       0.00000000       5.94121212       0.00000000       0.00000000      -0.01275365
2
Properties=species:S:1:pos:R:3:forces:R:3 energy=-91.57179840862737 pbc="F F F"
Pt       0.00000000       0.00000000       0.00000000       0.00000000       0.00000000       0.00319748
Pt       0.00000000       0.00000000       6.00000000       0.00000000       0.00000000      -0.00319748
