2
Properties=species:S:1:pos:R:3:forces:R:3 energy=333655039.98442185 pbc="F F F"
Pu       0.00000000       0.00000000       0.00000000       0.00000000       0.00000000 -7150148.00000000
Pu       0.00000000       0.00000000       0.10000000       0.00000000       0.00000000 7150148.00000000
2
Properties=species:S:1:pos:R:3:forces:R:3 energy=332879487.98442185 pbc="F F F"
Pu       0.00000000       0.00000000       0.00000000       0.00000000       0.00000000 -23133322.00000000
Pu       0.00000000       0.00000000       0.15959596       0.00000000       0.00000000 23133322.00000000
2
Properties=species:S:1:pos:R:3:forces:R:3 energy=330298783.98442185 pbc="F F F"
Pu       0.00000000       0.00000000       0.00000000       0.00000000       0.00000000 -69891968.00000000
Pu       0.00000000       0.00000000       0.21919192       0.00000000       0.00000000 69891968.00000000
2
Properties=species:S:1:pos:R:3:forces:R:3 energy=323652223.98442185 pbc="F F F"
Pu       0.00000000       0.00000000       0.00000000       0.00000000       0.00000000 -161894160.00000000
Pu       0.00000000       0.00000000       0.27878788       0.00000000       0.00000000 161894160.00000000
2
Properties=species:S:1:pos:R:3:forces:R:3 energy=309853631.98442185 pbc="F F F"
Pu       0.00000000       0.00000000       0.00000000       0.00000000       0.00000000 -311118944.00000000
Pu       0.00000000       0.00000000       0.33838384       0.00000000       0.00000000 311118944.00000000
2
Properties=species:S:1:pos:R:3:forces:R:3 energy=285442655.98442185 pbc="F F F"
Pu       0.00000000       0.00000000       0.00000000       0.00000000       0.00000000 -515967520.00000000
Pu       0.00000000       0.00000000       0.39797980       0.00000000       0.00000000 515967520.00000000
2
Properties=species:S:1:pos:R:3:forces:R:3 energy=247790575.98442185 pbc="F F F"
Pu       0.00000000       0.00000000       0.00000000       0.00000000       0.00000000 -747957184.00000000
Pu       0.00000000       0.00000000       0.45757576       0.00000000       0.00000000 747957184.00000000
2
Properties=species:S:1:pos:R:3:forces:R:3 energy=197016271.98442185 pbc="F F F"
Pu       0.00000000       0.00000000       0.00000000       0.00000000       0.00000000 -942697920.00000000
Pu       0.00000000       0.00000000       0.51717172       0.00000000       0.00000000 942697920.00000000
2
Properties=species:S:1:pos:R:3:forces:R:3 energy=137946991.98442185 pbc="F F F"
Pu       0.00000000       0.00000000       0.00000000       0.00000000       0.00000000 -1011270912.00000000
Pu       0.00000000       0.00000000       0.57676768       0.00000000       0.00000000 1011270912.00000000
2
Properties=species:S:1:pos:R:3:forces:R:3 energy=80373575.98442185 pbc="F F F"
Pu       0.00000000       0.00000000       0.00000000       0.00000000       0.00000000 -886976704.00000000
Pu       0.00000000       0.00000000       0.63636364       0.00000000       0.00000000 886976704.00000000
2
Properties=species:S:1:pos:R:3:forces:R:3 energy=35675963.98442185 pbc="F F F"
Pu       0.00000000       0.00000000       0.00000000       0.00000000       0.00000000 -593349376.00000000
Pu       0.00000000       0.00000000       0.69595960       0.00000000       0.00000000 593349376.00000000
2
Properties=species:S:1:pos:R:3:forces:R:3 energy=10327532.984421851 pbc="F F F"
Pu       0.00000000       0.00000000       0.00000000       0.00000000       0.00000000 -266630640.00000000
Pu       0.00000000       0.00000000       0.75555556       0.00000000       0.00000000 266630640.00000000
2
Properties=species:S:1:pos:R:3:forces:R:3 energy=1388950.8594218593 pbc="F F F"
Pu       0.00000000       0.00000000       0.00000000       0.00000000       0.00000000 -61074248.00000000
Pu       0.00000000       0.00000000       0.81515152       0.00000000       0.00000000 61074248.00000000
2
Properties=species:S:1:pos:R:3:forces:R:3 energy=24134.58403124529 pbc="F F F"
Pu       0.00000000       0.00000000       0.00000000       0.00000000       0.00000000 -2924963.50000000
Pu       0.00000000       0.00000000       0.87474747       0.00000000       0.00000000 2924963.50000000
2
Properties=species:S:1:pos:R:3:forces:R:3 energy=1078.0317851642092 pbc="F F F"
Pu       0.00000000       0.00000000       0.00000000       0.00000000       0.00000000   15257.73925781
Pu       0.00000000       0.00000000       0.93434343       0.00000000       0.00000000  -15257.73925781
2
Properties=species:S:1:pos:R:3:forces:R:3 energy=10301.683640651967 pbc="F F F"
Pu       0.00000000       0.00000000       0.00000000       0.00000000       0.00000000 -137839.60937500
Pu       0.00000000       0.00000000       0.99393939       0.00000000       0.00000000  137839.60937500
2
Properties=species:S:1:pos:R:3:forces:R:3 energy=5778.897507864809 pbc="F F F"
Pu       0.00000000       0.00000000       0.00000000       0.00000000       0.00000000  -47701.37890625
Pu       0.00000000       0.00000000       1.05353535       0.00000000       0.00000000   47701.37890625
2
Properties=species:S:1:pos:R:3:forces:R:3 energy=3380.9971172746546 pbc="F F F"
Pu       0.00000000       0.00000000       0.00000000       0.00000000       0.00000000  -34650.33593750
Pu       0.00000000       0.00000000       1.11313131       0.00000000       0.00000000   34650.33593750
2
Properties=species:S:1:pos:R:3:forces:R:3 energy=1554.6382306002542 pbc="F F F"
Pu       0.00000000       0.00000000       0.00000000       0.00000000       0.00000000  -26226.01953125
Pu       0.00000000       0.00000000       1.17272727       0.00000000       0.00000000   26226.01953125
2
Properties=species:S:1:pos:R:3:forces:R:3 energy=565.1831525354429 pbc="F F F"
Pu       0.00000000       0.00000000       0.00000000       0.00000000       0.00000000   -9042.43261719
Pu       0.00000000       0.00000000       1.23232323       0.00000000       0.00000000    9042.43261719
2
Properties=species:S:1:pos:R:3:forces:R:3 energy=160.43106215420121 pbc="F F F"
Pu       0.00000000       0.00000000       0.00000000       0.00000000       0.00000000   -2743.47436523
Pu       0.00000000       0.00000000       1.29191919       0.00000000       0.00000000    2743.47436523
2
Properties=species:S:1:pos:R:3:forces:R:3 energy=27.818635491423382 pbc="F F F"
Pu       0.00000000       0.00000000       0.00000000       0.00000000       0.00000000   -1716.53588867
Pu       0.00000000       0.00000000       1.35151515       0.00000000       0.00000000    1716.53588867
2
Properties=species:S:1:pos:R:3:forces:R:3 energy=-57.61685023121095 pbc="F F F"
Pu       0.00000000       0.00000000       0.00000000       0.00000000       0.00000000   -1193.43481445
Pu       0.00000000       0.00000000       1.41111111       0.00000000       0.00000000    1193.43481445
2
Properties=species:S:1:pos:R:3:forces:R:3 energy=-115.18064708256145 pbc="F F F"
Pu       0.00000000       0.00000000       0.00000000       0.00000000       0.00000000    -747.99475098
Pu       0.00000000       0.00000000       1.47070707       0.00000000       0.00000000     747.99475098
2
Properties=species:S:1:pos:R:3:forces:R:3 energy=-155.12627983656589 pbc="F F F"
Pu       0.00000000       0.00000000       0.00000000       0.00000000       0.00000000    -499.74890137
Pu       0.00000000       0.00000000       1.53030303       0.00000000       0.00000000     499.74890137
2
Properties=species:S:1:pos:R:3:forces:R:3 energy=-172.37112214569913 pbc="F F F"
Pu       0.00000000       0.00000000       0.00000000       0.00000000       0.00000000     -25.89011002
Pu       0.00000000       0.00000000       1.58989899       0.00000000       0.00000000      25.89011002
2
Properties=species:S:1:pos:R:3:forces:R:3 energy=-151.9178595505005 pbc="F F F"
Pu       0.00000000       0.00000000       0.00000000       0.00000000       0.00000000     854.36340332
Pu       0.00000000       0.00000000       1.64949495       0.00000000       0.00000000    -854.36340332
2
Properties=species:S:1:pos:R:3:forces:R:3 energy=-119.00663486373219 pbc="F F F"
Pu       0.00000000       0.00000000       0.00000000       0.00000000       0.00000000     323.37921143
Pu       0.00000000       0.00000000       1.70909091       0.00000000       0.00000000    -323.37921143
2
Properties=species:S:1:pos:R:3:forces:R:3 energy=-107.60389400191008 pbc="F F F"
Pu       0.00000000       0.00000000       0.00000000       0.00000000       0.00000000      73.38428497
Pu       0.00000000       0.00000000       1.76868687       0.00000000       0.00000000     -73.38428497
2
Properties=species:S:1:pos:R:3:forces:R:3 energy=-108.26659801351713 pbc="F F F"
Pu       0.00000000       0.00000000       0.00000000       0.00000000       0.00000000    -111.80100250
Pu       0.00000000       0.00000000       1.82828283       0.00000000       0.00000000     111.80100250
2
Properties=species:S:1:pos:R:3:forces:R:3 energy=-123.81018420277657 pbc="F F F"
Pu       0.00000000       0.00000000       0.00000000       0.00000000       0.00000000    -403.68499756
Pu       0.00000000       0.00000000       1.88787879       0.00000000       0.00000000     403.68499756
2
Properties=species:S:1:pos:R:3:forces:R:3 energy=-160.4376173444837 pbc="F F F"
Pu       0.00000000       0.00000000       0.00000000       0.00000000       0.00000000    -796.56188965
Pu       0.00000000       0.00000000       1.94747475       0.00000000       0.00000000     796.56188965
2
Properties=species:S:1:pos:R:3:forces:R:3 energy=-177.16941286311 pbc="F F F"
Pu       0.00000000       0.00000000       0.00000000       0.00000000       0.00000000      34.38231659
Pu       0.00000000       0.00000000       2.00707071       0.00000000       0.00000000     -34.38231659
2
Properties=species:S:1:pos:R:3:forces:R:3 energy=-177.9603360705602 pbc="F F F"
Pu       0.00000000       0.00000000       0.00000000       0.00000000       0.00000000     -72.43395233
Pu       0.00000000       0.00000000       2.06666667       0.00000000       0.00000000      72.43395233
2
Properties=species:S:1:pos:R:3:forces:R:3 energy=-182.41622190559698 pbc="F F F"
Pu       0.00000000       0.00000000       0.00000000       0.00000000       0.00000000     -75.93534851
Pu       0.00000000       0.00000000       2.12626263       0.00000000       0.00000000      75.93534851
2
Properties=species:S:1:pos:R:3:forces:R:3 energy=-186.36661443401925 pbc="F F F"
Pu       0.00000000       0.00000000       0.00000000       0.00000000       0.00000000     -93.21007538
Pu       0.00000000       0.00000000       2.18585859       0.00000000       0.00000000      93.21007538
2
Properties=species:S:1:pos:R:3:forces:R:3 energy=-191.13963864473968 pbc="F F F"
Pu       0.00000000       0.00000000       0.00000000       0.00000000       0.00000000     -25.23413086
Pu       0.00000000       0.00000000       2.24545455       0.00000000       0.00000000      25.23413086
2
Properties=species:S:1:pos:R:3:forces:R:3 energy=-190.55789585453368 pbc="F F F"
Pu       0.00000000       0.00000000       0.00000000       0.00000000       0.00000000      59.55591965
Pu       0.00000000       0.00000000       2.30505051       0.00000000       0.00000000     -59.55591965
2
Properties=species:S:1:pos:R:3:forces:R:3 energy=-185.3586144759629 pbc="F F F"
Pu       0.00000000       0.00000000       0.00000000       0.00000000       0.00000000     104.53814697
Pu       0.00000000       0.00000000       2.36464646       0.00000000       0.00000000    -104.53814697
2
Properties=species:S:1:pos:R:3:forces:R:3 energy=-179.20616224182936 pbc="F F F"
Pu       0.00000000       0.00000000       0.00000000       0.00000000       0.00000000      95.72967529
Pu       0.00000000       0.00000000       2.42424242       0.00000000       0.00000000     -95.72967529
2
Properties=species:S:1:pos:R:3:forces:R:3 energy=-174.1523733631165 pbc="F F F"
Pu       0.00000000       0.00000000       0.00000000       0.00000000       0.00000000      73.20944214
Pu       0.00000000       0.00000000       2.48383838       0.00000000       0.00000000     -73.20944214
2
Properties=species:S:1:pos:R:3:forces:R:3 energy=-170.50668101329217 pbc="F F F"
Pu       0.00000000       0.00000000       0.00000000       0.00000000       0.00000000      48.95601273
Pu       0.00000000       0.00000000       2.54343434       0.00000000       0.00000000     -48.95601273
2
Properties=species:S:1:pos:R:3:forces:R:3 energy=-168.42153610075624 pbc="F F F"
Pu       0.00000000       0.00000000       0.00000000       0.00000000       0.00000000      21.15826797
Pu       0.00000000       0.00000000       2.60303030       0.00000000       0.00000000     -21.15826797
2
Properties=species:S:1:pos:R:3:forces:R:3 energy=-167.73690496692797 pbc="F F F"
Pu       0.00000000       0.00000000       0.00000000       0.00000000       0.00000000       4.72454929
Pu       0.00000000       0.00000000       2.66262626       0.00000000       0.00000000      -4.72454929
2
Properties=species:S:1:pos:R:3:forces:R:3 energy=-167.57931436028082 pbc="F F F"
Pu       0.00000000       0.00000000       0.00000000       0.00000000       0.00000000       2.03642750
Pu       0.00000000       0.00000000       2.72222222       0.00000000       0.00000000      -2.03642750
2
Properties=species:S:1:pos:R:3:forces:R:3 energy=-167.41425020668203 pbc="F F F"
Pu       0.00000000       0.00000000       0.00000000       0.00000000       0.00000000       3.57097888
Pu       0.00000000       0.00000000       2.78181818       0.00000000       0.00000000      -3.57097888
2
Properties=species:S:1:pos:R:3:forces:R:3 energy=-167.1759948720248 pbc="F F F"
Pu       0.00000000       0.00000000       0.00000000       0.00000000       0.00000000       4.17031193
Pu       0.00000000       0.00000000       2.84141414       0.00000000       0.00000000      -4.17031193
2
Properties=species:S:1:pos:R:3:forces:R:3 energy=-166.93922776695436 pbc="F F F"
Pu       0.00000000       0.00000000       0.00000000       0.00000000       0.00000000       3.67505622
Pu       0.00000000       0.00000000       2.90101010       0.00000000       0.00000000      -3.67505622
2
Properties=species:S:1:pos:R:3:forces:R:3 energy=-166.74216104596238 pbc="F F F"
Pu       0.00000000       0.00000000       0.00000000       0.00000000       0.00000000       2.94589901
Pu       0.00000000       0.00000000       2.96060606       0.00000000       0.00000000      -2.94589901
2
Properties=species:S:1:pos:R:3:forces:R:3 energy=-166.58664692734592 pbc="F F F"
Pu       0.00000000       0.00000000       0.00000000       0.00000000       0.00000000       2.26625490
Pu       0.00000000       0.00000000       3.02020202       0.00000000       0.00000000      -2.26625490
2
Properties=species:S:1:pos:R:3:forces:R:3 energy=-166.47730185559243 pbc="F F F"
Pu       0.00000000       0.00000000       0.00000000       0.00000000       0.00000000       1.32623684
Pu       0.00000000       0.00000000       3.07979798       0.00000000       0.00000000      -1.32623684
2
Properties=species:S:1:pos:R:3:forces:R:3 energy=-166.4380631127302 pbc="F F F"
Pu       0.00000000       0.00000000       0.00000000       0.00000000       0.00000000      -0.06451470
Pu       0.00000000       0.00000000       3.13939394       0.00000000       0.00000000       0.06451470
2
Properties=species:S:1:pos:R:3:forces:R:3 energy=-166.4848157117571 pbc="F F F"
Pu       0.00000000       0.00000000       0.00000000       0.00000000       0.00000000      -1.43837500
Pu       0.00000000       0.00000000       3.19898990       0.00000000       0.00000000       1.43837500
2
Properties=species:S:1:pos:R:3:forces:R:3 energy=-166.59551709733708 pbc="F F F"
Pu       0.00000000       0.00000000       0.00000000       0.00000000       0.00000000      -2.12758279
Pu       0.00000000       0.00000000       3.25858586       0.00000000       0.00000000       2.12758279
2
Properties=species:S:1:pos:R:3:forces:R:3 energy=-166.72080378293063 pbc="F F F"
Pu       0.00000000       0.00000000       0.00000000       0.00000000       0.00000000      -1.94860089
Pu       0.00000000       0.00000000       3.31818182       0.00000000       0.00000000       1.94860089
2
Properties=species:S:1:pos:R:3:forces:R:3 energy=-166.816524606463 pbc="F F F"
Pu       0.00000000       0.00000000       0.00000000       0.00000000       0.00000000      -1.20528531
Pu       0.00000000       0.00000000       3.37777778       0.00000000       0.00000000       1.20528531
2
Properties=species:S:1:pos:R:3:forces:R:3 energy=-166.8612119741085 pbc="F F F"
Pu       0.00000000       0.00000000       0.00000000       0.00000000       0.00000000      -0.29329136
Pu       0.00000000       0.00000000       3.43737374       0.00000000       0.00000000       0.29329136
2
Properties=species:S:1:pos:R:3:forces:R:3 energy=-166.85346722998295 pbc="F F F"
Pu       0.00000000       0.00000000       0.00000000       0.00000000       0.00000000       0.52303272
Pu       0.00000000       0.00000000       3.49696970       0.00000000       0.00000000      -0.52303272
2
Properties=species:S:1:pos:R:3:forces:R:3 energy=-166.80355076450476 pbc="F F F"
Pu       0.00000000       0.00000000       0.00000000       0.00000000       0.00000000       1.10656917
Pu       0.00000000       0.00000000       3.55656566       0.00000000       0.00000000      -1.10656917
2
Properties=species:S:1:pos:R:3:forces:R:3 energy=-166.7273334314805 pbc="F F F"
Pu       0.00000000       0.00000000       0.00000000       0.00000000       0.00000000       1.40252197
Pu       0.00000000       0.00000000       3.61616162       0.00000000       0.00000000      -1.40252197
2
Properties=species:S:1:pos:R:3:forces:R:3 energy=-166.64182523006642 pbc="F F F"
Pu       0.00000000       0.00000000       0.00000000       0.00000000       0.00000000       1.42630208
Pu       0.00000000       0.00000000       3.67575758       0.00000000       0.00000000      -1.42630208
2
Properties=species:S:1:pos:R:3:forces:R:3 energy=-166.56129182226962 pbc="F F F"
Pu       0.00000000       0.00000000       0.00000000       0.00000000       0.00000000       1.25121772
Pu       0.00000000       0.00000000       3.73535354       0.00000000       0.00000000      -1.25121772
2
Properties=species:S:1:pos:R:3:forces:R:3 energy=-166.49470018276455 pbc="F F F"
Pu       0.00000000       0.00000000       0.00000000       0.00000000       0.00000000       0.97500801
Pu       0.00000000       0.00000000       3.79494949       0.00000000       0.00000000      -0.97500801
2
Properties=species:S:1:pos:R:3:forces:R:3 energy=-166.44533211366033 pbc="F F F"
Pu       0.00000000       0.00000000       0.00000000       0.00000000       0.00000000       0.68520641
Pu       0.00000000       0.00000000       3.85454545       0.00000000       0.00000000      -0.68520641
2
Properties=species:S:1:pos:R:3:forces:R:3 energy=-166.41209421660707 pbc="F F F"
Pu       0.00000000       0.00000000       0.00000000       0.00000000       0.00000000       0.44078800
Pu       0.00000000       0.00000000       3.91414141       0.00000000       0.00000000      -0.44078800
2
Properties=species:S:1:pos:R:3:forces:R:3 energy=-166.39135169568587 pbc="F F F"
Pu       0.00000000       0.00000000       0.00000000       0.00000000       0.00000000       0.26803589
Pu       0.00000000       0.00000000       3.97373737       0.00000000       0.00000000      -0.26803589
2
Properties=species:S:1:pos:R:3:forces:R:3 energy=-166.37873259087308 pbc="F F F"
Pu       0.00000000       0.00000000       0.00000000       0.00000000       0.00000000       0.16661082
Pu       0.00000000       0.00000000       4.03333333       0.00000000       0.00000000      -0.16661082
2
Properties=species:S:1:pos:R:3:forces:R:3 energy=-166.37035889196594 pbc="F F F"
Pu       0.00000000       0.00000000       0.00000000       0.00000000       0.00000000       0.12216829
Pu       0.00000000       0.00000000       4.09292929       0.00000000       0.00000000      -0.12216829
2
Properties=species:S:1:pos:R:3:forces:R:3 energy=-166.3633545484189 pbc="F F F"
Pu       0.00000000       0.00000000       0.00000000       0.00000000       0.00000000       0.11823665
Pu       0.00000000       0.00000000       4.15252525       0.00000000       0.00000000      -0.11823665
2
Properties=species:S:1:pos:R:3:forces:R:3 energy=-166.35572257917516 pbc="F F F"
Pu       0.00000000       0.00000000       0.00000000       0.00000000       0.00000000       0.14182177
Pu       0.00000000       0.00000000       4.21212121       0.00000000       0.00000000      -0.14182177
2
Properties=species:S:1:pos:R:3:forces:R:3 energy=-166.3460966529244 pbc="F F F"
Pu       0.00000000       0.00000000       0.00000000       0.00000000       0.00000000       0.18347614
Pu       0.00000000       0.00000000       4.27171717       0.00000000       0.00000000      -0.18347614
2
Properties=species:S:1:pos:R:3:forces:R:3 energy=-166.33365535148968 pbc="F F F"
Pu       0.00000000       0.00000000       0.00000000       0.00000000       0.00000000       0.23546597
Pu       0.00000000       0.00000000       4.33131313       0.00000000       0.00000000      -0.23546597
2
Properties=species:S:1:pos:R:3:forces:R:3 energy=-166.3179722492432 pbc="F F F"
Pu       0.00000000       0.00000000       0.00000000       0.00000000       0.00000000       0.29051089
Pu       0.00000000       0.00000000       4.39090909       0.00000000       0.00000000      -0.29051089
2
Properties=species:S:1:pos:R:3:forces:R:3 energy=-166.29910847954372 pbc="F F F"
Pu       0.00000000       0.00000000       0.00000000       0.00000000       0.00000000       0.34151345
Pu       0.00000000       0.00000000       4.45050505       0.00000000       0.00000000      -0.34151345
2
Properties=species:S:1:pos:R:3:forces:R:3 energy=-166.27747589031173 pbc="F F F"
Pu       0.00000000       0.00000000       0.00000000       0.00000000       0.00000000       0.38183478
Pu       0.00000000       0.00000000       4.51010101       0.00000000       0.00000000      -0.38183478
2
Properties=species:S:1:pos:R:3:forces:R:3 energy=-166.2539134456808 pbc="F F F"
Pu       0.00000000       0.00000000       0.00000000       0.00000000       0.00000000       0.40586177
Pu       0.00000000       0.00000000       4.56969697       0.00000000       0.00000000      -0.40586177
2
Properties=species:S:1:pos:R:3:forces:R:3 energy=-166.22950421556342 pbc="F F F"
Pu       0.00000000       0.00000000       0.00000000       0.00000000       0.00000000       0.40994036
Pu       0.00000000       0.00000000       4.62929293       0.00000000       0.00000000      -0.40994036
2
Properties=species:S:1:pos:R:3:forces:R:3 energy=-166.20546856887938 pbc="F F F"
Pu       0.00000000       0.00000000       0.00000000       0.00000000       0.00000000       0.39361545
Pu       0.00000000       0.00000000       4.68888889       0.00000000       0.00000000      -0.39361545
2
Properties=species:S:1:pos:R:3:forces:R:3 energy=-166.182920080448 pbc="F F F"
Pu       0.00000000       0.00000000       0.00000000       0.00000000       0.00000000       0.36050147
Pu       0.00000000       0.00000000       4.74848485       0.00000000       0.00000000      -0.36050147
2
Properties=species:S:1:pos:R:3:forces:R:3 energy=-166.16268237800216 pbc="F F F"
Pu       0.00000000       0.00000000       0.00000000       0.00000000       0.00000000       0.31796837
Pu       0.00000000       0.00000000       4.80808081       0.00000000       0.00000000      -0.31796837
2
Properties=species:S:1:pos:R:3:forces:R:3 energy=-166.14502977920407 pbc="F F F"
Pu       0.00000000       0.00000000       0.00000000       0.00000000       0.00000000       0.27525625
Pu       0.00000000       0.00000000       4.86767677       0.00000000       0.00000000      -0.27525625
2
Properties=species:S:1:pos:R:3:forces:R:3 energy=-166.1297025868644 pbc="F F F"
Pu       0.00000000       0.00000000       0.00000000       0.00000000       0.00000000       0.24090700
Pu       0.00000000       0.00000000       4.92727273       0.00000000       0.00000000      -0.24090700
2
Properties=species:S:1:pos:R:3:forces:R:3 energy=-166.11602907689135 pbc="F F F"
Pu       0.00000000       0.00000000       0.00000000       0.00000000       0.00000000       0.22053568
Pu       0.00000000       0.00000000       4.98686869       0.00000000       0.00000000      -0.22053568
2
Properties=species:S:1:pos:R:3:forces:R:3 energy=-166.10310869245842 pbc="F F F"
Pu       0.00000000       0.00000000       0.00000000       0.00000000       0.00000000       0.21576945
Pu       0.00000000       0.00000000       5.04646465       0.00000000       0.00000000      -0.21576945
2
Properties=species:S:1:pos:R:3:forces:R:3 energy=-166.09005614027987 pbc="F F F"
Pu       0.00000000       0.00000000       0.00000000       0.00000000       0.00000000       0.22426772
Pu       0.00000000       0.00000000       5.10606061       0.00000000       0.00000000      -0.22426772
2
Properties=species:S:1:pos:R:3:forces:R:3 energy=-166.07621502791292 pbc="F F F"
Pu       0.00000000       0.00000000       0.00000000       0.00000000       0.00000000       0.24039580
Pu       0.00000000       0.00000000       5.16565657       0.00000000       0.00000000      -0.24039580
2
Properties=species:S:1:pos:R:3:forces:R:3 energy=-166.0614020123021 pbc="F F F"
Pu       0.00000000       0.00000000       0.00000000       0.00000000       0.00000000       0.25604033
Pu       0.00000000       0.00000000       5.22525253       0.00000000       0.00000000      -0.25604033
2
Properties=species:S:1:pos:R:3:forces:R:3 energy=-166.04590678869206 pbc="F F F"
Pu       0.00000000       0.00000000       0.00000000       0.00000000       0.00000000       0.26193973
Pu       0.00000000       0.00000000       5.28484848       0.00000000       0.00000000      -0.26193973
2
Properties=species:S:1:pos:R:3:forces:R:3 energy=-166.03050738267873 pbc="F F F"
Pu       0.00000000       0.00000000       0.00000000       0.00000000       0.00000000       0.25234088
Pu       0.00000000       0.00000000       5.34444444       0.00000000       0.00000000      -0.25234088
2
Properties=species:S:1:pos:R:3:forces:R:3 energy=-166.01595133395804 pbc="F F F"
Pu       0.00000000       0.00000000       0.00000000       0.00000000       0.00000000       0.23700495
Pu       0.00000000       0.00000000       5.40404040       0.00000000       0.00000000      -0.23700495
2
Properties=species:S:1:pos:R:3:forces:R:3 energy=-166.00176549652397 pbc="F F F"
Pu       0.00000000       0.00000000       0.00000000       0.00000000       0.00000000       0.24526058
Pu       0.00000000       0.00000000       5.46363636       0.00000000       0.00000000      -0.24526058
2
Properties=species:S:1:pos:R:3:forces:R:3 energy=-165.9861950526136 pbc="F F F"
Pu       0.00000000       0.00000000       0.00000000       0.00000000       0.00000000       0.27821141
Pu       0.00000000       0.00000000       5.52323232       0.00000000       0.00000000      -0.27821141
2
Properties=species:S:1:pos:R:3:forces:R:3 energy=-165.96905687458337 pbc="F F F"
Pu       0.00000000       0.00000000       0.00000000       0.00000000       0.00000000       0.29018515
Pu       0.00000000       0.00000000       5.58282828       0.00000000       0.00000000      -0.29018515
2
Properties=species:S:1:pos:R:3:forces:R:3 energy=-165.95219730442025 pbc="F F F"
Pu       0.00000000       0.00000000       0.00000000       0.00000000       0.00000000       0.27374995
Pu       0.00000000       0.00000000       5.64242424       0.00000000       0.00000000      -0.27374995
2
Properties=species:S:1:pos:R:3:forces:R:3 energy=-165.9362725492495 pbc="F F F"
Pu       0.00000000       0.00000000       0.00000000       0.00000000       0.00000000       0.26435488
Pu       0.00000000       0.00000000       5.70202020       0.00000000       0.00000000      -0.26435488
2
Properties=species:S:1:pos:R:3:forces:R:3 energy=-165.92044351188903 pbc="F F F"
Pu       0.00000000       0.00000000       0.00000000       0.00000000       0.00000000       0.26464641
Pu       0.00000000       0.00000000       5.76161616       0.00000000       0.00000000      -0.26464641
2
Properties=species:S:1:pos:R:3:forces:R:3 energy=-165.90577849764253 pbc="F F F"
Pu       0.00000000       0.00000000       0.00000000       0.00000000       0.00000000       0.21497698
Pu       0.00000000       0.00000000       5.82121212       0.00000000       0.00000000      -0.21497698
2
Properties=species:S:1:pos:R:3:forces:R:3 energy=-165.89583305778734 pbc="F F F"
Pu       0.00000000       0.00000000       0.00000000       0.00000000       0.00000000       0.11772596
Pu       0.00000000       0.00000000       5.88080808       0.00000000       0.00000000      -0.11772596
2
Properties=species:S:1:pos:R:3:forces:R:3 energy=-165.8913856915088 pbc="F F F"
Pu       0.00000000       0.00000000       0.00000000       0.00000000       0.00000000       0.03629263
Pu       0.00000000       0.00000000       5.94040404       0.00000000       0.00000000      -0.03629263
2
Properties=species:S:1:pos:R:3:forces:R:3 energy=-165.8904378680748 pbc="F F F"
Pu       0.00000000       0.00000000       0.00000000       0.00000000       0.00000000       0.00600008
Pu       0.00000000       0.00000000       6.00000000       0.00000000       0.00000000      -0.00600008
