2
Properties=species:S:1:pos:R:3:forces:R:3 energy=-49535.50771897066 pbc="F F F"
Re       0.00000000       0.00000000       0.00000000       0.00000000       0.00000000 -251471.93750000
Re       0.00000000       0.00000000       0.18000000       0.00000000       0.00000000  251471.93750000
2
Properties=species:S:1:pos:R:3:forces:R:3 energy=-57410.08975022066 pbc="F F F"
Re       0.00000000       0.00000000       0.00000000       0.00000000       0.00000000  -51525.74609375
Re       0.00000000       0.00000000       0.23878788       0.00000000       0.00000000   51525.74609375
2
Properties=species:S:1:pos:R:3:forces:R:3 energy=-57518.69131272066 pbc="F F F"
Re       0.00000000       0.00000000       0.00000000       0.00000000       0.00000000   41393.33984375
Re       0.00000000       0.00000000       0.29757576       0.00000000       0.00000000  -41393.33984375
2
Properties=species:S:1:pos:R:3:forces:R:3 energy=-52850.28115647066 pbc="F F F"
Re       0.00000000       0.00000000       0.00000000       0.00000000       0.00000000  116651.83593750
Re       0.00000000       0.00000000       0.35636364       0.00000000       0.00000000 -116651.83593750
2
Properties=species:S:1:pos:R:3:forces:R:3 energy=-43909.476468969864 pbc="F F F"
Re       0.00000000       0.00000000       0.00000000       0.00000000       0.00000000  185535.56250000
Re       0.00000000       0.00000000       0.41515152       0.00000000       0.00000000 -185535.56250000
2
Properties=species:S:1:pos:R:3:forces:R:3 energy=-31517.287015844075 pbc="F F F"
Re       0.00000000       0.00000000       0.00000000       0.00000000       0.00000000  229392.35937500
Re       0.00000000       0.00000000       0.47393939       0.00000000       0.00000000 -229392.35937500
2
Properties=species:S:1:pos:R:3:forces:R:3 energy=-18353.94326584328 pbc="F F F"
Re       0.00000000       0.00000000       0.00000000       0.00000000       0.00000000  212956.78125000
Re       0.00000000       0.00000000       0.53272727       0.00000000       0.00000000 -212956.78125000
2
Properties=species:S:1:pos:R:3:forces:R:3 energy=-7346.248441622156 pbc="F F F"
Re       0.00000000       0.00000000       0.00000000       0.00000000       0.00000000  152146.12500000
Re       0.00000000       0.00000000       0.59151515       0.00000000       0.00000000 -152146.12500000
2
Properties=species:S:1:pos:R:3:forces:R:3 energy=2180.263765413054 pbc="F F F"
Re       0.00000000       0.00000000       0.00000000       0.00000000       0.00000000  170279.92187500
Re       0.00000000       0.00000000       0.65030303       0.00000000       0.00000000 -170279.92187500
2
Properties=species:S:1:pos:R:3:forces:R:3 energy=9620.998140417805 pbc="F F F"
Re       0.00000000       0.00000000       0.00000000       0.00000000       0.00000000   -2346.40917969
Re       0.00000000       0.00000000       0.70909091       0.00000000       0.00000000    2346.40917969
2
Properties=species:S:1:pos:R:3:forces:R:3 energy=6762.611909957767 pbc="F F F"
Re       0.00000000       0.00000000       0.00000000       0.00000000       0.00000000  -83653.15625000
Re       0.00000000       0.00000000       0.76787879       0.00000000       0.00000000   83653.15625000
2
Properties=species:S:1:pos:R:3:forces:R:3 energy=4952.8243123149805 pbc="F F F"
Re       0.00000000       0.00000000       0.00000000       0.00000000       0.00000000    5000.60253906
Re       0.00000000       0.00000000       0.82666667       0.00000000       0.00000000   -5000.60253906
2
Properties=species:S:1:pos:R:3:forces:R:3 energy=4592.884370926154 pbc="F F F"
Re       0.00000000       0.00000000       0.00000000       0.00000000       0.00000000  -16322.16308594
Re       0.00000000       0.00000000       0.88545455       0.00000000       0.00000000   16322.16308594
2
Properties=species:S:1:pos:R:3:forces:R:3 energy=3454.639009623371 pbc="F F F"
Re       0.00000000       0.00000000       0.00000000       0.00000000       0.00000000  -19823.49414062
Re       0.00000000       0.00000000       0.94424242       0.00000000       0.00000000   19823.49414062
2
Properties=species:S:1:pos:R:3:forces:R:3 energy=2369.2671834847583 pbc="F F F"
Re       0.00000000       0.00000000       0.00000000       0.00000000       0.00000000  -16473.77929688
Re       0.00000000       0.00000000       1.00303030       0.00000000       0.00000000   16473.77929688
2
Properties=species:S:1:pos:R:3:forces:R:3 energy=1563.2352011088167 pbc="F F F"
Re       0.00000000       0.00000000       0.00000000       0.00000000       0.00000000  -10986.14648438
Re       0.00000000       0.00000000       1.06181818       0.00000000       0.00000000   10986.14648438
2
Properties=species:S:1:pos:R:3:forces:R:3 energy=1039.3171103510685 pbc="F F F"
Re       0.00000000       0.00000000       0.00000000       0.00000000       0.00000000   -7265.55761719
Re       0.00000000       0.00000000       1.12060606       0.00000000       0.00000000    7265.55761719
2
Properties=species:S:1:pos:R:3:forces:R:3 energy=667.5286582826186 pbc="F F F"
Re       0.00000000       0.00000000       0.00000000       0.00000000       0.00000000   -5664.75683594
Re       0.00000000       0.00000000       1.17939394       0.00000000       0.00000000    5664.75683594
2
Properties=species:S:1:pos:R:3:forces:R:3 energy=356.4221825547028 pbc="F F F"
Re       0.00000000       0.00000000       0.00000000       0.00000000       0.00000000   -4956.86914062
Re       0.00000000       0.00000000       1.23818182       0.00000000       0.00000000    4956.86914062
2
Properties=species:S:1:pos:R:3:forces:R:3 energy=98.04648841047307 pbc="F F F"
Re       0.00000000       0.00000000       0.00000000       0.00000000       0.00000000   -3588.74389648
Re       0.00000000       0.00000000       1.29696970       0.00000000       0.00000000    3588.74389648
2
Properties=species:S:1:pos:R:3:forces:R:3 energy=-51.272526927729864 pbc="F F F"
Re       0.00000000       0.00000000       0.00000000       0.00000000       0.00000000   -1470.18029785
Re       0.00000000       0.00000000       1.35575758       0.00000000       0.00000000    1470.18029785
2
Properties=species:S:1:pos:R:3:forces:R:3 energy=-85.84535692201673 pbc="F F F"
Re       0.00000000       0.00000000       0.00000000       0.00000000       0.00000000     125.72125244
Re       0.00000000       0.00000000       1.41454545       0.00000000       0.00000000    -125.72125244
2
Properties=species:S:1:pos:R:3:forces:R:3 energy=-85.24174949006463 pbc="F F F"
Re       0.00000000       0.00000000       0.00000000       0.00000000       0.00000000     -43.82790756
Re       0.00000000       0.00000000       1.47333333       0.00000000       0.00000000      43.82790756
2
Properties=species:S:1:pos:R:3:forces:R:3 energy=-87.43854940996775 pbc="F F F"
Re       0.00000000       0.00000000       0.00000000       0.00000000       0.00000000     -30.12863350
Re       0.00000000       0.00000000       1.53212121       0.00000000       0.00000000      30.12863350
2
Properties=species:S:1:pos:R:3:forces:R:3 energy=-88.90582655747652 pbc="F F F"
Re       0.00000000       0.00000000       0.00000000       0.00000000       0.00000000     -21.03718948
Re       0.00000000       0.00000000       1.59090909       0.00000000       0.00000000      21.03718948
2
Properties=species:S:1:pos:R:3:forces:R:3 energy=-90.06165648619482 pbc="F F F"
Re       0.00000000       0.00000000       0.00000000       0.00000000       0.00000000     -19.12841034
Re       0.00000000       0.00000000       1.64969697       0.00000000       0.00000000      19.12841034
2
Properties=species:S:1:pos:R:3:forces:R:3 energy=-91.15378851444052 pbc="F F F"
Re       0.00000000       0.00000000       0.00000000       0.00000000       0.00000000     -17.40918541
Re       0.00000000       0.00000000       1.70848485       0.00000000       0.00000000      17.40918541
2
Properties=species:S:1:pos:R:3:forces:R:3 energy=-92.04223850581054 pbc="F F F"
Re       0.00000000       0.00000000       0.00000000       0.00000000       0.00000000     -12.57872200
Re       0.00000000       0.00000000       1.76727273       0.00000000       0.00000000      12.57872200
2
Properties=species:S:1:pos:R:3:forces:R:3 energy=-92.64438775246968 pbc="F F F"
Re       0.00000000       0.00000000       0.00000000       0.00000000       0.00000000      -8.20111465
Re       0.00000000       0.00000000       1.82606061       0.00000000       0.00000000       8.20111465
2
Properties=species:S:1:pos:R:3:forces:R:3 energy=-93.0402457410017 pbc="F F F"
Re       0.00000000       0.00000000       0.00000000       0.00000000       0.00000000      -5.47115469
Re       0.00000000       0.00000000       1.88484848       0.00000000       0.00000000       5.47115469
2
Properties=species:S:1:pos:R:3:forces:R:3 energy=-93.29998771041319 pbc="F F F"
Re       0.00000000       0.00000000       0.00000000       0.00000000       0.00000000      -3.39443493
Re       0.00000000       0.00000000       1.94363636       0.00000000       0.00000000       3.39443493
2
Properties=species:S:1:pos:R:3:forces:R:3 energy=-93.4387505212142 pbc="F F F"
Re       0.00000000       0.00000000       0.00000000       0.00000000       0.00000000      -1.30958951
Re       0.00000000       0.00000000       2.00242424       0.00000000       0.00000000       1.30958951
2
Properties=species:S:1:pos:R:3:forces:R:3 energy=-93.4534597990494 pbc="F F F"
Re       0.00000000       0.00000000       0.00000000       0.00000000       0.00000000       0.78987741
Re       0.00000000       0.00000000       2.06121212       0.00000000       0.00000000      -0.78987741
2
Properties=species:S:1:pos:R:3:forces:R:3 energy=-93.35189038795853 pbc="F F F"
Re       0.00000000       0.00000000       0.00000000       0.00000000       0.00000000       2.58252358
Re       0.00000000       0.00000000       2.12000000       0.00000000       0.00000000      -2.58252358
2
Properties=species:S:1:pos:R:3:forces:R:3 energy=-93.16254653667174 pbc="F F F"
Re       0.00000000       0.00000000       0.00000000       0.00000000       0.00000000       3.73221660
Re       0.00000000       0.00000000       2.17878788       0.00000000       0.00000000      -3.73221660
2
Properties=species:S:1:pos:R:3:forces:R:3 energy=-92.92884851459658 pbc="F F F"
Re       0.00000000       0.00000000       0.00000000       0.00000000       0.00000000       4.08499146
Re       0.00000000       0.00000000       2.23757576       0.00000000       0.00000000      -4.08499146
2
Properties=species:S:1:pos:R:3:forces:R:3 energy=-92.69634602693598 pbc="F F F"
Re       0.00000000       0.00000000       0.00000000       0.00000000       0.00000000       3.72736621
Re       0.00000000       0.00000000       2.29636364       0.00000000       0.00000000      -3.72736621
2
Properties=species:S:1:pos:R:3:forces:R:3 energy=-92.4980702325627 pbc="F F F"
Re       0.00000000       0.00000000       0.00000000       0.00000000       0.00000000       2.99410009
Re       0.00000000       0.00000000       2.35515152       0.00000000       0.00000000      -2.99410009
2
Properties=species:S:1:pos:R:3:forces:R:3 energy=-92.34247236897812 pbc="F F F"
Re       0.00000000       0.00000000       0.00000000       0.00000000       0.00000000       2.34873509
Re       0.00000000       0.00000000       2.41393939       0.00000000       0.00000000      -2.34873509
2
Properties=species:S:1:pos:R:3:forces:R:3 energy=-92.21398943228571 pbc="F F F"
Re       0.00000000       0.00000000       0.00000000       0.00000000       0.00000000       2.09533620
Re       0.00000000       0.00000000       2.47272727       0.00000000       0.00000000      -2.09533620
2
Properties=species:S:1:pos:R:3:forces:R:3 energy=-92.08872440049055 pbc="F F F"
Re       0.00000000       0.00000000       0.00000000       0.00000000       0.00000000       2.21199918
Re       0.00000000       0.00000000       2.53151515       0.00000000       0.00000000      -2.21199918
2
Properties=species:S:1:pos:R:3:forces:R:3 energy=-91.95102006610477 pbc="F F F"
Re       0.00000000       0.00000000       0.00000000       0.00000000       0.00000000       2.47717643
Re       0.00000000       0.00000000       2.59030303       0.00000000       0.00000000      -2.47717643
2
Properties=species:S:1:pos:R:3:forces:R:3 energy=-91.79878791020272 pbc="F F F"
Re       0.00000000       0.00000000       0.00000000       0.00000000       0.00000000       2.67936897
Re       0.00000000       0.00000000       2.64909091       0.00000000       0.00000000      -2.67936897
2
Properties=species:S:1:pos:R:3:forces:R:3 energy=-91.63917558201629 pbc="F F F"
Re       0.00000000       0.00000000       0.00000000       0.00000000       0.00000000       2.72338057
Re       0.00000000       0.00000000       2.70787879       0.00000000       0.00000000      -2.72338057
2
Properties=species:S:1:pos:R:3:forces:R:3 energy=-91.48123619614002 pbc="F F F"
Re       0.00000000       0.00000000       0.00000000       0.00000000       0.00000000       2.63498354
Re       0.00000000       0.00000000       2.76666667       0.00000000       0.00000000      -2.63498354
2
Properties=species:S:1:pos:R:3:forces:R:3 energy=-91.32987167294858 pbc="F F F"
Re       0.00000000       0.00000000       0.00000000       0.00000000       0.00000000       2.52088571
Re       0.00000000       0.00000000       2.82545455       0.00000000       0.00000000      -2.52088571
2
Properties=species:S:1:pos:R:3:forces:R:3 energy=-91.1831305608957 pbc="F F F"
Re       0.00000000       0.00000000       0.00000000       0.00000000       0.00000000       2.49045348
Re       0.00000000       0.00000000       2.88424242       0.00000000       0.00000000      -2.49045348
2
Properties=species:S:1:pos:R:3:forces:R:3 energy=-91.03499366810728 pbc="F F F"
Re       0.00000000       0.00000000       0.00000000       0.00000000       0.00000000       2.56103134
Re       0.00000000       0.00000000       2.94303030       0.00000000       0.00000000      -2.56103134
2
Properties=species:S:1:pos:R:3:forces:R:3 energy=-90.88171456253443 pbc="F F F"
Re       0.00000000       0.00000000       0.00000000       0.00000000       0.00000000       2.64697886
Re       0.00000000       0.00000000       3.00181818       0.00000000       0.00000000      -2.64697886
2
Properties=species:S:1:pos:R:3:forces:R:3 energy=-90.72549208853971 pbc="F F F"
Re       0.00000000       0.00000000       0.00000000       0.00000000       0.00000000       2.64732862
Re       0.00000000       0.00000000       3.06060606       0.00000000       0.00000000      -2.64732862
2
Properties=species:S:1:pos:R:3:forces:R:3 energy=-90.57326625577902 pbc="F F F"
Re       0.00000000       0.00000000       0.00000000       0.00000000       0.00000000       2.50442195
Re       0.00000000       0.00000000       3.11939394       0.00000000       0.00000000      -2.50442195
2
Properties=species:S:1:pos:R:3:forces:R:3 energy=-90.4345382855363 pbc="F F F"
Re       0.00000000       0.00000000       0.00000000       0.00000000       0.00000000       2.18296051
Re       0.00000000       0.00000000       3.17818182       0.00000000       0.00000000      -2.18296051
2
Properties=species:S:1:pos:R:3:forces:R:3 energy=-90.32050046249036 pbc="F F F"
Re       0.00000000       0.00000000       0.00000000       0.00000000       0.00000000       1.66546190
Re       0.00000000       0.00000000       3.23696970       0.00000000       0.00000000      -1.66546190
2
Properties=species:S:1:pos:R:3:forces:R:3 energy=-90.2415365465427 pbc="F F F"
Re       0.00000000       0.00000000       0.00000000       0.00000000       0.00000000       1.00749421
Re       0.00000000       0.00000000       3.29575758       0.00000000       0.00000000      -1.00749421
2
Properties=species:S:1:pos:R:3:forces:R:3 energy=-90.20198240806981 pbc="F F F"
Re       0.00000000       0.00000000       0.00000000       0.00000000       0.00000000       0.35262448
Re       0.00000000       0.00000000       3.35454545       0.00000000       0.00000000      -0.35262448
2
Properties=species:S:1:pos:R:3:forces:R:3 energy=-90.19702453268687 pbc="F F F"
Re       0.00000000       0.00000000       0.00000000       0.00000000       0.00000000      -0.14971215
Re       0.00000000       0.00000000       3.41333333       0.00000000       0.00000000       0.14971215
2
Properties=species:S:1:pos:R:3:forces:R:3 energy=-90.21520365217131 pbc="F F F"
Re       0.00000000       0.00000000       0.00000000       0.00000000       0.00000000      -0.43138760
Re       0.00000000       0.00000000       3.47212121       0.00000000       0.00000000       0.43138760
2
Properties=species:S:1:pos:R:3:forces:R:3 energy=-90.24381670900311 pbc="F F F"
Re       0.00000000       0.00000000       0.00000000       0.00000000       0.00000000      -0.51388729
Re       0.00000000       0.00000000       3.53090909       0.00000000       0.00000000       0.51388729
2
Properties=species:S:1:pos:R:3:forces:R:3 energy=-90.27299873291052 pbc="F F F"
Re       0.00000000       0.00000000       0.00000000       0.00000000       0.00000000      -0.46254188
Re       0.00000000       0.00000000       3.58969697       0.00000000       0.00000000       0.46254188
2
Properties=species:S:1:pos:R:3:forces:R:3 energy=-90.29686724213023 pbc="F F F"
Re       0.00000000       0.00000000       0.00000000       0.00000000       0.00000000      -0.34251747
Re       0.00000000       0.00000000       3.64848485       0.00000000       0.00000000       0.34251747
2
Properties=species:S:1:pos:R:3:forces:R:3 energy=-90.31281277624018 pbc="F F F"
Re       0.00000000       0.00000000       0.00000000       0.00000000       0.00000000      -0.19815560
Re       0.00000000       0.00000000       3.70727273       0.00000000       0.00000000       0.19815560
2
Properties=species:S:1:pos:R:3:forces:R:3 energy=-90.32014082275137 pbc="F F F"
Re       0.00000000       0.00000000       0.00000000       0.00000000       0.00000000      -0.05192365
Re       0.00000000       0.00000000       3.76606061       0.00000000       0.00000000       0.05192365
2
Properties=species:S:1:pos:R:3:forces:R:3 energy=-90.3190647655401 pbc="F F F"
Re       0.00000000       0.00000000       0.00000000       0.00000000       0.00000000       0.08674799
Re       0.00000000       0.00000000       3.82484848       0.00000000       0.00000000      -0.08674799
2
Properties=species:S:1:pos:R:3:forces:R:3 energy=-90.3102023384733 pbc="F F F"
Re       0.00000000       0.00000000       0.00000000       0.00000000       0.00000000       0.21213070
Re       0.00000000       0.00000000       3.88363636       0.00000000       0.00000000      -0.21213070
2
Properties=species:S:1:pos:R:3:forces:R:3 energy=-90.29451459658783 pbc="F F F"
Re       0.00000000       0.00000000       0.00000000       0.00000000       0.00000000       0.31773978
Re       0.00000000       0.00000000       3.94242424       0.00000000       0.00000000      -0.31773978
2
Properties=species:S:1:pos:R:3:forces:R:3 energy=-90.27335931551669 pbc="F F F"
Re       0.00000000       0.00000000       0.00000000       0.00000000       0.00000000       0.39682856
Re       0.00000000       0.00000000       4.00121212       0.00000000       0.00000000      -0.39682856
2
Properties=species:S:1:pos:R:3:forces:R:3 energy=-90.24846810964095 pbc="F F F"
Re       0.00000000       0.00000000       0.00000000       0.00000000       0.00000000       0.44467759
Re       0.00000000       0.00000000       4.06000000       0.00000000       0.00000000      -0.44467759
2
Properties=species:S:1:pos:R:3:forces:R:3 energy=-90.22171755658954 pbc="F F F"
Re       0.00000000       0.00000000       0.00000000       0.00000000       0.00000000       0.46019283
Re       0.00000000       0.00000000       4.11878788       0.00000000       0.00000000      -0.46019283
2
Properties=species:S:1:pos:R:3:forces:R:3 energy=-90.19494607909914 pbc="F F F"
Re       0.00000000       0.00000000       0.00000000       0.00000000       0.00000000       0.44612369
Re       0.00000000       0.00000000       4.17757576       0.00000000       0.00000000      -0.44612369
2
Properties=species:S:1:pos:R:3:forces:R:3 energy=-90.16973270999588 pbc="F F F"
Re       0.00000000       0.00000000       0.00000000       0.00000000       0.00000000       0.40826923
Re       0.00000000       0.00000000       4.23636364       0.00000000       0.00000000      -0.40826923
2
Properties=species:S:1:pos:R:3:forces:R:3 energy=-90.14725975675807 pbc="F F F"
Re       0.00000000       0.00000000       0.00000000       0.00000000       0.00000000       0.35419470
Re       0.00000000       0.00000000       4.29515152       0.00000000       0.00000000      -0.35419470
2
Properties=species:S:1:pos:R:3:forces:R:3 energy=-90.12824414013323 pbc="F F F"
Re       0.00000000       0.00000000       0.00000000       0.00000000       0.00000000       0.29197204
Re       0.00000000       0.00000000       4.35393939       0.00000000       0.00000000      -0.29197204
2
Properties=species:S:1:pos:R:3:forces:R:3 energy=-90.1129373988899 pbc="F F F"
Re       0.00000000       0.00000000       0.00000000       0.00000000       0.00000000       0.22913936
Re       0.00000000       0.00000000       4.41272727       0.00000000       0.00000000      -0.22913936
2
Properties=species:S:1:pos:R:3:forces:R:3 energy=-90.10118672814161 pbc="F F F"
Re       0.00000000       0.00000000       0.00000000       0.00000000       0.00000000       0.17208020
Re       0.00000000       0.00000000       4.47151515       0.00000000       0.00000000      -0.17208020
2
Properties=species:S:1:pos:R:3:forces:R:3 energy=-90.09249601767105 pbc="F F F"
Re       0.00000000       0.00000000       0.00000000       0.00000000       0.00000000       0.12560353
Re       0.00000000       0.00000000       4.53030303       0.00000000       0.00000000      -0.12560353
2
Properties=species:S:1:pos:R:3:forces:R:3 energy=-90.08615555163705 pbc="F F F"
Re       0.00000000       0.00000000       0.00000000       0.00000000       0.00000000       0.09267530
Re       0.00000000       0.00000000       4.58909091       0.00000000       0.00000000      -0.09267530
2
Properties=species:S:1:pos:R:3:forces:R:3 energy=-90.08131830251986 pbc="F F F"
Re       0.00000000       0.00000000       0.00000000       0.00000000       0.00000000       0.07422417
Re       0.00000000       0.00000000       4.64787879       0.00000000       0.00000000      -0.07422417
2
Properties=species:S:1:pos:R:3:forces:R:3 energy=-90.0771601610777 pbc="F F F"
Re       0.00000000       0.00000000       0.00000000       0.00000000       0.00000000       0.06913031
Re       0.00000000       0.00000000       4.70666667       0.00000000       0.00000000      -0.06913031
2
Properties=species:S:1:pos:R:3:forces:R:3 energy=-90.07298674945397 pbc="F F F"
Re       0.00000000       0.00000000       0.00000000       0.00000000       0.00000000       0.07454428
Re       0.00000000       0.00000000       4.76545455       0.00000000       0.00000000      -0.07454428
2
Properties=species:S:1:pos:R:3:forces:R:3 energy=-90.06827156339831 pbc="F F F"
Re       0.00000000       0.00000000       0.00000000       0.00000000       0.00000000       0.08647670
Re       0.00000000       0.00000000       4.82424242       0.00000000       0.00000000      -0.08647670
2
Properties=species:S:1:pos:R:3:forces:R:3 energy=-90.06277805683419 pbc="F F F"
Re       0.00000000       0.00000000       0.00000000       0.00000000       0.00000000       0.10048842
Re       0.00000000       0.00000000       4.88303030       0.00000000       0.00000000      -0.10048842
2
Properties=species:S:1:pos:R:3:forces:R:3 energy=-90.056498601951 pbc="F F F"
Re       0.00000000       0.00000000       0.00000000       0.00000000       0.00000000       0.11221988
Re       0.00000000       0.00000000       4.94181818       0.00000000       0.00000000      -0.11221988
2
Properties=species:S:1:pos:R:3:forces:R:3 energy=-90.04970026477926 pbc="F F F"
Re       0.00000000       0.00000000       0.00000000       0.00000000       0.00000000       0.11769380
Re       0.00000000       0.00000000       5.00060606       0.00000000       0.00000000      -0.11769380
2
Properties=species:S:1:pos:R:3:forces:R:3 energy=-90.04284852787632 pbc="F F F"
Re       0.00000000       0.00000000       0.00000000       0.00000000       0.00000000       0.11366838
Re       0.00000000       0.00000000       5.05939394       0.00000000       0.00000000      -0.11366838
2
Properties=species:S:1:pos:R:3:forces:R:3 energy=-90.0365615060397 pbc="F F F"
Re       0.00000000       0.00000000       0.00000000       0.00000000       0.00000000       0.09842537
Re       0.00000000       0.00000000       5.11818182       0.00000000       0.00000000      -0.09842537
2
Properties=species:S:1:pos:R:3:forces:R:3 energy=-90.03148024818395 pbc="F F F"
Re       0.00000000       0.00000000       0.00000000       0.00000000       0.00000000       0.07299165
Re       0.00000000       0.00000000       5.17696970       0.00000000       0.00000000      -0.07299165
2
Properties=species:S:1:pos:R:3:forces:R:3 energy=-90.02809326681009 pbc="F F F"
Re       0.00000000       0.00000000       0.00000000       0.00000000       0.00000000       0.04196383
Re       0.00000000       0.00000000       5.23575758       0.00000000       0.00000000      -0.04196383
2
Properties=species:S:1:pos:R:3:forces:R:3 energy=-90.0265152800205 pbc="F F F"
Re       0.00000000       0.00000000       0.00000000       0.00000000       0.00000000       0.01231338
Re       0.00000000       0.00000000       5.29454545       0.00000000       0.00000000      -0.01231338
2
Properties=species:S:1:pos:R:3:forces:R:3 energy=-90.02650247664371 pbc="F F F"
Re       0.00000000       0.00000000       0.00000000       0.00000000       0.00000000      -0.01059030
Re       0.00000000       0.00000000       5.35333333       0.00000000       0.00000000       0.01059030
2
Properties=species:S:1:pos:R:3:forces:R:3 energy=-90.02763561853523 pbc="F F F"
Re       0.00000000       0.00000000       0.00000000       0.00000000       0.00000000      -0.02697314
Re       0.00000000       0.00000000       5.41212121       0.00000000       0.00000000       0.02697314
2
Properties=species:S:1:pos:R:3:forces:R:3 energy=-90.02959469086119 pbc="F F F"
Re       0.00000000       0.00000000       0.00000000       0.00000000       0.00000000      -0.03873543
Re       0.00000000       0.00000000       5.47090909       0.00000000       0.00000000       0.03873543
2
Properties=species:S:1:pos:R:3:forces:R:3 energy=-90.0319681767385 pbc="F F F"
Re       0.00000000       0.00000000       0.00000000       0.00000000       0.00000000      -0.03945641
Re       0.00000000       0.00000000       5.52969697       0.00000000       0.00000000       0.03945641
2
Properties=species:S:1:pos:R:3:forces:R:3 energy=-90.03395549184117 pbc="F F F"
Re       0.00000000       0.00000000       0.00000000       0.00000000       0.00000000      -0.02665966
Re       0.00000000       0.00000000       5.58848485       0.00000000       0.00000000       0.02665966
2
Properties=species:S:1:pos:R:3:forces:R:3 energy=-90.03507653234698 pbc="F F F"
Re       0.00000000       0.00000000       0.00000000       0.00000000       0.00000000      -0.01182970
Re       0.00000000       0.00000000       5.64727273       0.00000000       0.00000000       0.01182970
2
Properties=species:S:1:pos:R:3:forces:R:3 energy=-90.03536238366615 pbc="F F F"
Re       0.00000000       0.00000000       0.00000000       0.00000000       0.00000000       0.00231574
Re       0.00000000       0.00000000       5.70606061       0.00000000       0.00000000      -0.00231574
2
Properties=species:S:1:pos:R:3:forces:R:3 energy=-90.03468394876985 pbc="F F F"
Re       0.00000000       0.00000000       0.00000000       0.00000000       0.00000000       0.02180658
Re       0.00000000       0.00000000       5.76484848       0.00000000       0.00000000      -0.02180658
2
Properties=species:S:1:pos:R:3:forces:R:3 energy=-90.03286637406089 pbc="F F F"
Re       0.00000000       0.00000000       0.00000000       0.00000000       0.00000000       0.03734110
Re       0.00000000       0.00000000       5.82363636       0.00000000       0.00000000      -0.03734110
2
Properties=species:S:1:pos:R:3:forces:R:3 energy=-90.03074951937454 pbc="F F F"
Re       0.00000000       0.00000000       0.00000000       0.00000000       0.00000000       0.03114076
Re       0.00000000       0.00000000       5.88242424       0.00000000       0.00000000      -0.03114076
2
Properties=species:S:1:pos:R:3:forces:R:3 energy=-90.02944792254807 pbc="F F F"
Re       0.00000000       0.00000000       0.00000000       0.00000000       0.00000000       0.01306091
Re       0.00000000       0.00000000       5.94121212       0.00000000       0.00000000      -0.01306091
2
Properties=species:S:1:pos:R:3:forces:R:3 energy=-90.02901562528352 pbc="F F F"
Re       0.00000000       0.00000000       0.00000000       0.00000000       0.00000000       0.00449861
Re       0.00000000       0.00000000       6.00000000       0.00000000       0.00000000      -0.00449861
