2
Properties=species:S:1:pos:R:3:forces:R:3 energy=14345.527437279343 pbc="F F F"
Re       0.00000000       0.00000000       0.00000000       0.00000000       0.00000000 -2005706.50000000
Re       0.00000000       0.00000000       0.10000000       0.00000000       0.00000000 2005706.50000000
2
Properties=species:S:1:pos:R:3:forces:R:3 energy=-42979.91787522066 pbc="F F F"
Re       0.00000000       0.00000000       0.00000000       0.00000000       0.00000000 -403842.15625000
Re       0.00000000       0.00000000       0.15959596       0.00000000       0.00000000  403842.15625000
2
Properties=species:S:1:pos:R:3:forces:R:3 energy=-55975.41787522066 pbc="F F F"
Re       0.00000000       0.00000000       0.00000000       0.00000000       0.00000000  -96991.00781250
Re       0.00000000       0.00000000       0.21919192       0.00000000       0.00000000   96991.00781250
2
Properties=species:S:1:pos:R:3:forces:R:3 energy=-58055.65615647066 pbc="F F F"
Re       0.00000000       0.00000000       0.00000000       0.00000000       0.00000000   15428.00097656
Re       0.00000000       0.00000000       0.27878788       0.00000000       0.00000000  -15428.00097656
2
Properties=species:S:1:pos:R:3:forces:R:3 energy=-54745.32021897066 pbc="F F F"
Re       0.00000000       0.00000000       0.00000000       0.00000000       0.00000000   94075.65625000
Re       0.00000000       0.00000000       0.33838384       0.00000000       0.00000000  -94075.65625000
2
Properties=species:S:1:pos:R:3:forces:R:3 energy=-46937.675687719864 pbc="F F F"
Re       0.00000000       0.00000000       0.00000000       0.00000000       0.00000000  166781.46875000
Re       0.00000000       0.00000000       0.39797980       0.00000000       0.00000000 -166781.46875000
2
Properties=species:S:1:pos:R:3:forces:R:3 energy=-35211.66396896907 pbc="F F F"
Re       0.00000000       0.00000000       0.00000000       0.00000000       0.00000000  221442.43750000
Re       0.00000000       0.00000000       0.45757576       0.00000000       0.00000000 -221442.43750000
2
Properties=species:S:1:pos:R:3:forces:R:3 energy=-21717.19326584328 pbc="F F F"
Re       0.00000000       0.00000000       0.00000000       0.00000000       0.00000000  218716.15625000
Re       0.00000000       0.00000000       0.51717172       0.00000000       0.00000000 -218716.15625000
2
Properties=species:S:1:pos:R:3:forces:R:3 energy=-9742.811429904197 pbc="F F F"
Re       0.00000000       0.00000000       0.00000000       0.00000000       0.00000000  172428.89062500
Re       0.00000000       0.00000000       0.57676768       0.00000000       0.00000000 -172428.89062500
2
Properties=species:S:1:pos:R:3:forces:R:3 energy=-1066.7751750182174 pbc="F F F"
Re       0.00000000       0.00000000       0.00000000       0.00000000       0.00000000  271354.93750000
Re       0.00000000       0.00000000       0.63636364       0.00000000       0.00000000 -271354.93750000
2
Properties=species:S:1:pos:R:3:forces:R:3 energy=9431.618257603723 pbc="F F F"
Re       0.00000000       0.00000000       0.00000000       0.00000000       0.00000000   32786.15625000
Re       0.00000000       0.00000000       0.69595960       0.00000000       0.00000000  -32786.15625000
2
Properties=species:S:1:pos:R:3:forces:R:3 energy=7715.795991988225 pbc="F F F"
Re       0.00000000       0.00000000       0.00000000       0.00000000       0.00000000  -71684.03906250
Re       0.00000000       0.00000000       0.75555556       0.00000000       0.00000000   71684.03906250
2
Properties=species:S:1:pos:R:3:forces:R:3 energy=4863.183199029771 pbc="F F F"
Re       0.00000000       0.00000000       0.00000000       0.00000000       0.00000000   11270.59960938
Re       0.00000000       0.00000000       0.81515152       0.00000000       0.00000000  -11270.59960938
2
Properties=species:S:1:pos:R:3:forces:R:3 energy=4753.253999829236 pbc="F F F"
Re       0.00000000       0.00000000       0.00000000       0.00000000       0.00000000  -13483.33984375
Re       0.00000000       0.00000000       0.87474747       0.00000000       0.00000000   13483.33984375
2
Properties=species:S:1:pos:R:3:forces:R:3 energy=3651.985933446744 pbc="F F F"
Re       0.00000000       0.00000000       0.00000000       0.00000000       0.00000000  -20030.04101562
Re       0.00000000       0.00000000       0.93434343       0.00000000       0.00000000   20030.04101562
2
Properties=species:S:1:pos:R:3:forces:R:3 energy=2522.5413534018817 pbc="F F F"
Re       0.00000000       0.00000000       0.00000000       0.00000000       0.00000000  -17234.56640625
Re       0.00000000       0.00000000       0.99393939       0.00000000       0.00000000   17234.56640625
2
Properties=species:S:1:pos:R:3:forces:R:3 energy=1657.2043173134184 pbc="F F F"
Re       0.00000000       0.00000000       0.00000000       0.00000000       0.00000000  -11710.94921875
Re       0.00000000       0.00000000       1.05353535       0.00000000       0.00000000   11710.94921875
2
Properties=species:S:1:pos:R:3:forces:R:3 energy=1094.9394247954822 pbc="F F F"
Re       0.00000000       0.00000000       0.00000000       0.00000000       0.00000000   -7624.48242188
Re       0.00000000       0.00000000       1.11313131       0.00000000       0.00000000    7624.48242188
2
Properties=species:S:1:pos:R:3:forces:R:3 energy=705.6799033895107 pbc="F F F"
Re       0.00000000       0.00000000       0.00000000       0.00000000       0.00000000   -5784.18261719
Re       0.00000000       0.00000000       1.17272727       0.00000000       0.00000000    5784.18261719
2
Properties=species:S:1:pos:R:3:forces:R:3 energy=385.6724266834484 pbc="F F F"
Re       0.00000000       0.00000000       0.00000000       0.00000000       0.00000000   -5028.34912109
Re       0.00000000       0.00000000       1.23232323       0.00000000       0.00000000    5028.34912109
2
Properties=species:S:1:pos:R:3:forces:R:3 energy=116.60476171323147 pbc="F F F"
Re       0.00000000       0.00000000       0.00000000       0.00000000       0.00000000   -3758.54101562
Re       0.00000000       0.00000000       1.29191919       0.00000000       0.00000000    3758.54101562
2
Properties=species:S:1:pos:R:3:forces:R:3 energy=-44.69468804269607 pbc="F F F"
Re       0.00000000       0.00000000       0.00000000       0.00000000       0.00000000   -1632.58093262
Re       0.00000000       0.00000000       1.35151515       0.00000000       0.00000000    1632.58093262
2
Properties=species:S:1:pos:R:3:forces:R:3 energy=-86.29513263048881 pbc="F F F"
Re       0.00000000       0.00000000       0.00000000       0.00000000       0.00000000     135.17018127
Re       0.00000000       0.00000000       1.41111111       0.00000000       0.00000000    -135.17018127
2
Properties=species:S:1:pos:R:3:forces:R:3 energy=-85.12667534502108 pbc="F F F"
Re       0.00000000       0.00000000       0.00000000       0.00000000       0.00000000     -43.75609970
Re       0.00000000       0.00000000       1.47070707       0.00000000       0.00000000      43.75609970
2
Properties=species:S:1:pos:R:3:forces:R:3 energy=-87.38341178598583 pbc="F F F"
Re       0.00000000       0.00000000       0.00000000       0.00000000       0.00000000     -30.52420807
Re       0.00000000       0.00000000       1.53030303       0.00000000       0.00000000      30.52420807
2
Properties=species:S:1:pos:R:3:forces:R:3 energy=-88.88452529586482 pbc="F F F"
Re       0.00000000       0.00000000       0.00000000       0.00000000       0.00000000     -21.12681770
Re       0.00000000       0.00000000       1.58989899       0.00000000       0.00000000      21.12681770
2
Properties=species:S:1:pos:R:3:forces:R:3 energy=-90.05780364354044 pbc="F F F"
Re       0.00000000       0.00000000       0.00000000       0.00000000       0.00000000     -19.12931061
Re       0.00000000       0.00000000       1.64949495       0.00000000       0.00000000      19.12931061
2
Properties=species:S:1:pos:R:3:forces:R:3 energy=-91.1643323305551 pbc="F F F"
Re       0.00000000       0.00000000       0.00000000       0.00000000       0.00000000     -17.37074471
Re       0.00000000       0.00000000       1.70909091       0.00000000       0.00000000      17.37074471
2
Properties=species:S:1:pos:R:3:forces:R:3 energy=-92.05993868449198 pbc="F F F"
Re       0.00000000       0.00000000       0.00000000       0.00000000       0.00000000     -12.45519829
Re       0.00000000       0.00000000       1.76868687       0.00000000       0.00000000      12.45519829
2
Properties=species:S:1:pos:R:3:forces:R:3 energy=-92.66246176118773 pbc="F F F"
Re       0.00000000       0.00000000       0.00000000       0.00000000       0.00000000      -8.07195377
Re       0.00000000       0.00000000       1.82828283       0.00000000       0.00000000       8.07195377
2
Properties=species:S:1:pos:R:3:forces:R:3 energy=-93.05664890043806 pbc="F F F"
Re       0.00000000       0.00000000       0.00000000       0.00000000       0.00000000      -5.35724974
Re       0.00000000       0.00000000       1.88787879       0.00000000       0.00000000       5.35724974
2
Properties=species:S:1:pos:R:3:forces:R:3 energy=-93.31275927013313 pbc="F F F"
Re       0.00000000       0.00000000       0.00000000       0.00000000       0.00000000      -3.26133394
Re       0.00000000       0.00000000       1.94747475       0.00000000       0.00000000       3.26133394
2
Properties=species:S:1:pos:R:3:forces:R:3 energy=-93.44444964408301 pbc="F F F"
Re       0.00000000       0.00000000       0.00000000       0.00000000       0.00000000      -1.14119267
Re       0.00000000       0.00000000       2.00707071       0.00000000       0.00000000       1.14119267
2
Properties=species:S:1:pos:R:3:forces:R:3 energy=-93.44864567010711 pbc="F F F"
Re       0.00000000       0.00000000       0.00000000       0.00000000       0.00000000       0.97504300
Re       0.00000000       0.00000000       2.06666667       0.00000000       0.00000000      -0.97504300
2
Properties=species:S:1:pos:R:3:forces:R:3 energy=-93.33522794948534 pbc="F F F"
Re       0.00000000       0.00000000       0.00000000       0.00000000       0.00000000       2.74016047
Re       0.00000000       0.00000000       2.12626263       0.00000000       0.00000000      -2.74016047
2
Properties=species:S:1:pos:R:3:forces:R:3 energy=-93.1358517572124 pbc="F F F"
Re       0.00000000       0.00000000       0.00000000       0.00000000       0.00000000       3.81743264
Re       0.00000000       0.00000000       2.18585859       0.00000000       0.00000000      -3.81743264
2
Properties=species:S:1:pos:R:3:forces:R:3 energy=-92.89670696675115 pbc="F F F"
Re       0.00000000       0.00000000       0.00000000       0.00000000       0.00000000       4.07338142
Re       0.00000000       0.00000000       2.24545455       0.00000000       0.00000000      -4.07338142
2
Properties=species:S:1:pos:R:3:forces:R:3 energy=-92.66437349469662 pbc="F F F"
Re       0.00000000       0.00000000       0.00000000       0.00000000       0.00000000       3.63179350
Re       0.00000000       0.00000000       2.30505051       0.00000000       0.00000000      -3.63179350
2
Properties=species:S:1:pos:R:3:forces:R:3 energy=-92.4702196768041 pbc="F F F"
Re       0.00000000       0.00000000       0.00000000       0.00000000       0.00000000       2.87241912
Re       0.00000000       0.00000000       2.36464646       0.00000000       0.00000000      -2.87241912
2
Properties=species:S:1:pos:R:3:forces:R:3 energy=-92.31867670114106 pbc="F F F"
Re       0.00000000       0.00000000       0.00000000       0.00000000       0.00000000       2.27246022
Re       0.00000000       0.00000000       2.42424242       0.00000000       0.00000000      -2.27246022
2
Properties=species:S:1:pos:R:3:forces:R:3 energy=-92.190726521188 pbc="F F F"
Re       0.00000000       0.00000000       0.00000000       0.00000000       0.00000000       2.09440064
Re       0.00000000       0.00000000       2.48383838       0.00000000       0.00000000      -2.09440064
2
Properties=species:S:1:pos:R:3:forces:R:3 energy=-92.06206953735591 pbc="F F F"
Re       0.00000000       0.00000000       0.00000000       0.00000000       0.00000000       2.26184678
Re       0.00000000       0.00000000       2.54343434       0.00000000       0.00000000      -2.26184678
2
Properties=species:S:1:pos:R:3:forces:R:3 energy=-91.91914190907097 pbc="F F F"
Re       0.00000000       0.00000000       0.00000000       0.00000000       0.00000000       2.53160143
Re       0.00000000       0.00000000       2.60303030       0.00000000       0.00000000      -2.53160143
2
Properties=species:S:1:pos:R:3:forces:R:3 energy=-91.76234647125449 pbc="F F F"
Re       0.00000000       0.00000000       0.00000000       0.00000000       0.00000000       2.70433736
Re       0.00000000       0.00000000       2.66262626       0.00000000       0.00000000      -2.70433736
2
Properties=species:S:1:pos:R:3:forces:R:3 energy=-91.60019256895129 pbc="F F F"
Re       0.00000000       0.00000000       0.00000000       0.00000000       0.00000000       2.71087766
Re       0.00000000       0.00000000       2.72222222       0.00000000       0.00000000      -2.71087766
2
Properties=species:S:1:pos:R:3:forces:R:3 energy=-91.44155279354898 pbc="F F F"
Re       0.00000000       0.00000000       0.00000000       0.00000000       0.00000000       2.60287666
Re       0.00000000       0.00000000       2.78181818       0.00000000       0.00000000      -2.60287666
2
Properties=species:S:1:pos:R:3:forces:R:3 energy=-91.28980560471977 pbc="F F F"
Re       0.00000000       0.00000000       0.00000000       0.00000000       0.00000000       2.50135827
Re       0.00000000       0.00000000       2.84141414       0.00000000       0.00000000      -2.50135827
2
Properties=species:S:1:pos:R:3:forces:R:3 energy=-91.14128188073751 pbc="F F F"
Re       0.00000000       0.00000000       0.00000000       0.00000000       0.00000000       2.50264287
Re       0.00000000       0.00000000       2.90101010       0.00000000       0.00000000      -2.50264287
2
Properties=species:S:1:pos:R:3:forces:R:3 energy=-90.98972677094685 pbc="F F F"
Re       0.00000000       0.00000000       0.00000000       0.00000000       0.00000000       2.59030175
Re       0.00000000       0.00000000       2.96060606       0.00000000       0.00000000      -2.59030175
2
Properties=species:S:1:pos:R:3:forces:R:3 energy=-90.83291839860742 pbc="F F F"
Re       0.00000000       0.00000000       0.00000000       0.00000000       0.00000000       2.65988255
Re       0.00000000       0.00000000       3.02020202       0.00000000       0.00000000      -2.65988255
2
Properties=species:S:1:pos:R:3:forces:R:3 energy=-90.67493449755226 pbc="F F F"
Re       0.00000000       0.00000000       0.00000000       0.00000000       0.00000000       2.61823606
Re       0.00000000       0.00000000       3.07979798       0.00000000       0.00000000      -2.61823606
2
Properties=species:S:1:pos:R:3:forces:R:3 energy=-90.5240200869035 pbc="F F F"
Re       0.00000000       0.00000000       0.00000000       0.00000000       0.00000000       2.41674113
Re       0.00000000       0.00000000       3.13939394       0.00000000       0.00000000      -2.41674113
2
Properties=species:S:1:pos:R:3:forces:R:3 energy=-90.39074833563402 pbc="F F F"
Re       0.00000000       0.00000000       0.00000000       0.00000000       0.00000000       2.02149487
Re       0.00000000       0.00000000       3.19898990       0.00000000       0.00000000      -2.02149487
2
Properties=species:S:1:pos:R:3:forces:R:3 energy=-90.28696911958103 pbc="F F F"
Re       0.00000000       0.00000000       0.00000000       0.00000000       0.00000000       1.43364811
Re       0.00000000       0.00000000       3.25858586       0.00000000       0.00000000      -1.43364811
2
Properties=species:S:1:pos:R:3:forces:R:3 energy=-90.22186596348853 pbc="F F F"
Re       0.00000000       0.00000000       0.00000000       0.00000000       0.00000000       0.74816179
Re       0.00000000       0.00000000       3.31818182       0.00000000       0.00000000      -0.74816179
2
Properties=species:S:1:pos:R:3:forces:R:3 energy=-90.19643987344078 pbc="F F F"
Re       0.00000000       0.00000000       0.00000000       0.00000000       0.00000000       0.12978646
Re       0.00000000       0.00000000       3.37777778       0.00000000       0.00000000      -0.12978646
2
Properties=species:S:1:pos:R:3:forces:R:3 energy=-90.20241331750312 pbc="F F F"
Re       0.00000000       0.00000000       0.00000000       0.00000000       0.00000000      -0.29197085
Re       0.00000000       0.00000000       3.43737374       0.00000000       0.00000000       0.29197085
2
Properties=species:S:1:pos:R:3:forces:R:3 energy=-90.2266866030906 pbc="F F F"
Re       0.00000000       0.00000000       0.00000000       0.00000000       0.00000000      -0.48719481
Re       0.00000000       0.00000000       3.49696970       0.00000000       0.00000000       0.48719481
2
Properties=species:S:1:pos:R:3:forces:R:3 energy=-90.25692285035858 pbc="F F F"
Re       0.00000000       0.00000000       0.00000000       0.00000000       0.00000000      -0.50374961
Re       0.00000000       0.00000000       3.55656566       0.00000000       0.00000000       0.50374961
2
Properties=species:S:1:pos:R:3:forces:R:3 energy=-90.28462271422644 pbc="F F F"
Re       0.00000000       0.00000000       0.00000000       0.00000000       0.00000000      -0.41379136
Re       0.00000000       0.00000000       3.61616162       0.00000000       0.00000000       0.41379136
2
Properties=species:S:1:pos:R:3:forces:R:3 energy=-90.30532278031369 pbc="F F F"
Re       0.00000000       0.00000000       0.00000000       0.00000000       0.00000000      -0.27677640
Re       0.00000000       0.00000000       3.67575758       0.00000000       0.00000000       0.27677640
2
Properties=species:S:1:pos:R:3:forces:R:3 energy=-90.31738249120943 pbc="F F F"
Re       0.00000000       0.00000000       0.00000000       0.00000000       0.00000000      -0.12777945
Re       0.00000000       0.00000000       3.73535354       0.00000000       0.00000000       0.12777945
2
Properties=species:S:1:pos:R:3:forces:R:3 energy=-90.32063375631165 pbc="F F F"
Re       0.00000000       0.00000000       0.00000000       0.00000000       0.00000000       0.01752693
Re       0.00000000       0.00000000       3.79494949       0.00000000       0.00000000      -0.01752693
2
Properties=species:S:1:pos:R:3:forces:R:3 energy=-90.31551119768291 pbc="F F F"
Re       0.00000000       0.00000000       0.00000000       0.00000000       0.00000000       0.15212530
Re       0.00000000       0.00000000       3.85454545       0.00000000       0.00000000      -0.15212530
2
Properties=species:S:1:pos:R:3:forces:R:3 energy=-90.30283089919267 pbc="F F F"
Re       0.00000000       0.00000000       0.00000000       0.00000000       0.00000000       0.26984507
Re       0.00000000       0.00000000       3.91414141       0.00000000       0.00000000      -0.26984507
2
Properties=species:S:1:pos:R:3:forces:R:3 energy=-90.28382093201517 pbc="F F F"
Re       0.00000000       0.00000000       0.00000000       0.00000000       0.00000000       0.36354190
Re       0.00000000       0.00000000       3.97373737       0.00000000       0.00000000      -0.36354190
2
Properties=species:S:1:pos:R:3:forces:R:3 energy=-90.26010608792069 pbc="F F F"
Re       0.00000000       0.00000000       0.00000000       0.00000000       0.00000000       0.42700905
Re       0.00000000       0.00000000       4.03333333       0.00000000       0.00000000      -0.42700905
2
Properties=species:S:1:pos:R:3:forces:R:3 energy=-90.23359345578059 pbc="F F F"
Re       0.00000000       0.00000000       0.00000000       0.00000000       0.00000000       0.45725861
Re       0.00000000       0.00000000       4.09292929       0.00000000       0.00000000      -0.45725861
2
Properties=species:S:1:pos:R:3:forces:R:3 energy=-90.20624350646935 pbc="F F F"
Re       0.00000000       0.00000000       0.00000000       0.00000000       0.00000000       0.45541969
Re       0.00000000       0.00000000       4.15252525       0.00000000       0.00000000      -0.45541969
2
Properties=species:S:1:pos:R:3:forces:R:3 energy=-90.17984889269212 pbc="F F F"
Re       0.00000000       0.00000000       0.00000000       0.00000000       0.00000000       0.42630103
Re       0.00000000       0.00000000       4.21212121       0.00000000       0.00000000      -0.42630103
2
Properties=species:S:1:pos:R:3:forces:R:3 energy=-90.15582841731856 pbc="F F F"
Re       0.00000000       0.00000000       0.00000000       0.00000000       0.00000000       0.37717721
Re       0.00000000       0.00000000       4.27171717       0.00000000       0.00000000      -0.37717721
2
Properties=species:S:1:pos:R:3:forces:R:3 energy=-90.13512787026087 pbc="F F F"
Re       0.00000000       0.00000000       0.00000000       0.00000000       0.00000000       0.31638458
Re       0.00000000       0.00000000       4.33131313       0.00000000       0.00000000      -0.31638458
2
Properties=species:S:1:pos:R:3:forces:R:3 energy=-90.11818951089563 pbc="F F F"
Re       0.00000000       0.00000000       0.00000000       0.00000000       0.00000000       0.25209412
Re       0.00000000       0.00000000       4.39090909       0.00000000       0.00000000      -0.25209412
2
Properties=species:S:1:pos:R:3:forces:R:3 energy=-90.10500548016124 pbc="F F F"
Re       0.00000000       0.00000000       0.00000000       0.00000000       0.00000000       0.19146927
Re       0.00000000       0.00000000       4.45050505       0.00000000       0.00000000      -0.19146927
2
Properties=species:S:1:pos:R:3:forces:R:3 energy=-90.0951788309623 pbc="F F F"
Re       0.00000000       0.00000000       0.00000000       0.00000000       0.00000000       0.14015697
Re       0.00000000       0.00000000       4.51010101       0.00000000       0.00000000      -0.14015697
2
Properties=species:S:1:pos:R:3:forces:R:3 energy=-90.08803798017512 pbc="F F F"
Re       0.00000000       0.00000000       0.00000000       0.00000000       0.00000000       0.10194128
Re       0.00000000       0.00000000       4.56969697       0.00000000       0.00000000      -0.10194128
2
Properties=species:S:1:pos:R:3:forces:R:3 energy=-90.08273588602476 pbc="F F F"
Re       0.00000000       0.00000000       0.00000000       0.00000000       0.00000000       0.07852077
Re       0.00000000       0.00000000       4.62929293       0.00000000       0.00000000      -0.07852077
2
Properties=species:S:1:pos:R:3:forces:R:3 energy=-90.0783950192525 pbc="F F F"
Re       0.00000000       0.00000000       0.00000000       0.00000000       0.00000000       0.06940358
Re       0.00000000       0.00000000       4.68888889       0.00000000       0.00000000      -0.06940358
2
Properties=species:S:1:pos:R:3:forces:R:3 energy=-90.07422943976393 pbc="F F F"
Re       0.00000000       0.00000000       0.00000000       0.00000000       0.00000000       0.07212206
Re       0.00000000       0.00000000       4.74848485       0.00000000       0.00000000      -0.07212206
2
Properties=species:S:1:pos:R:3:forces:R:3 energy=-90.0696363287725 pbc="F F F"
Re       0.00000000       0.00000000       0.00000000       0.00000000       0.00000000       0.08279844
Re       0.00000000       0.00000000       4.80808081       0.00000000       0.00000000      -0.08279844
2
Properties=species:S:1:pos:R:3:forces:R:3 energy=-90.06428757637995 pbc="F F F"
Re       0.00000000       0.00000000       0.00000000       0.00000000       0.00000000       0.09687684
Re       0.00000000       0.00000000       4.86767677       0.00000000       0.00000000      -0.09687684
2
Properties=species:S:1:pos:R:3:forces:R:3 energy=-90.05811450694812 pbc="F F F"
Re       0.00000000       0.00000000       0.00000000       0.00000000       0.00000000       0.10975487
Re       0.00000000       0.00000000       4.92727273       0.00000000       0.00000000      -0.10975487
2
Properties=species:S:1:pos:R:3:forces:R:3 energy=-90.05131552195674 pbc="F F F"
Re       0.00000000       0.00000000       0.00000000       0.00000000       0.00000000       0.11716336
Re       0.00000000       0.00000000       4.98686869       0.00000000       0.00000000      -0.11716336
2
Properties=species:S:1:pos:R:3:forces:R:3 energy=-90.04433320073242 pbc="F F F"
Re       0.00000000       0.00000000       0.00000000       0.00000000       0.00000000       0.11548995
Re       0.00000000       0.00000000       5.04646465       0.00000000       0.00000000      -0.11548995
2
Properties=species:S:1:pos:R:3:forces:R:3 energy=-90.03777802075864 pbc="F F F"
Re       0.00000000       0.00000000       0.00000000       0.00000000       0.00000000       0.10248768
Re       0.00000000       0.00000000       5.10606061       0.00000000       0.00000000      -0.10248768
2
Properties=species:S:1:pos:R:3:forces:R:3 energy=-90.03233680890096 pbc="F F F"
Re       0.00000000       0.00000000       0.00000000       0.00000000       0.00000000       0.07850973
Re       0.00000000       0.00000000       5.16565657       0.00000000       0.00000000      -0.07850973
2
Properties=species:S:1:pos:R:3:forces:R:3 energy=-90.02855911044084 pbc="F F F"
Re       0.00000000       0.00000000       0.00000000       0.00000000       0.00000000       0.04761431
Re       0.00000000       0.00000000       5.22525253       0.00000000       0.00000000      -0.04761431
2
Properties=species:S:1:pos:R:3:forces:R:3 energy=-90.02665882798543 pbc="F F F"
Re       0.00000000       0.00000000       0.00000000       0.00000000       0.00000000       0.01682518
Re       0.00000000       0.00000000       5.28484848       0.00000000       0.00000000      -0.01682518
2
Properties=species:S:1:pos:R:3:forces:R:3 energy=-90.02642267427701 pbc="F F F"
Re       0.00000000       0.00000000       0.00000000       0.00000000       0.00000000      -0.00762165
Re       0.00000000       0.00000000       5.34444444       0.00000000       0.00000000       0.00762165
2
Properties=species:S:1:pos:R:3:forces:R:3 energy=-90.02742378652832 pbc="F F F"
Re       0.00000000       0.00000000       0.00000000       0.00000000       0.00000000      -0.02498575
Re       0.00000000       0.00000000       5.40404040       0.00000000       0.00000000       0.02498575
2
Properties=species:S:1:pos:R:3:forces:R:3 energy=-90.02931927518512 pbc="F F F"
Re       0.00000000       0.00000000       0.00000000       0.00000000       0.00000000      -0.03767456
Re       0.00000000       0.00000000       5.46363636       0.00000000       0.00000000       0.03767456
2
Properties=species:S:1:pos:R:3:forces:R:3 energy=-90.03171289324074 pbc="F F F"
Re       0.00000000       0.00000000       0.00000000       0.00000000       0.00000000      -0.04016344
Re       0.00000000       0.00000000       5.52323232       0.00000000       0.00000000       0.04016344
2
Properties=species:S:1:pos:R:3:forces:R:3 energy=-90.03379644914945 pbc="F F F"
Re       0.00000000       0.00000000       0.00000000       0.00000000       0.00000000      -0.02816558
Re       0.00000000       0.00000000       5.58282828       0.00000000       0.00000000       0.02816558
2
Properties=species:S:1:pos:R:3:forces:R:3 energy=-90.03501355623108 pbc="F F F"
Re       0.00000000       0.00000000       0.00000000       0.00000000       0.00000000      -0.01295117
Re       0.00000000       0.00000000       5.64242424       0.00000000       0.00000000       0.01295117
2
Properties=species:S:1:pos:R:3:forces:R:3 energy=-90.03537243943073 pbc="F F F"
Re       0.00000000       0.00000000       0.00000000       0.00000000       0.00000000       0.00123061
Re       0.00000000       0.00000000       5.70202020       0.00000000       0.00000000      -0.00123061
2
Properties=species:S:1:pos:R:3:forces:R:3 energy=-90.03475165408075 pbc="F F F"
Re       0.00000000       0.00000000       0.00000000       0.00000000       0.00000000       0.02057745
Re       0.00000000       0.00000000       5.76161616       0.00000000       0.00000000      -0.02057745
2
Properties=species:S:1:pos:R:3:forces:R:3 energy=-90.03296110680186 pbc="F F F"
Re       0.00000000       0.00000000       0.00000000       0.00000000       0.00000000       0.03702793
Re       0.00000000       0.00000000       5.82121212       0.00000000       0.00000000      -0.03702793
2
Properties=species:S:1:pos:R:3:forces:R:3 energy=-90.03081017390528 pbc="F F F"
Re       0.00000000       0.00000000       0.00000000       0.00000000       0.00000000       0.03154422
Re       0.00000000       0.00000000       5.88080808       0.00000000       0.00000000      -0.03154422
2
Properties=species:S:1:pos:R:3:forces:R:3 energy=-90.02945918701852 pbc="F F F"
Re       0.00000000       0.00000000       0.00000000       0.00000000       0.00000000       0.01329295
Re       0.00000000       0.00000000       5.94040404       0.00000000       0.00000000      -0.01329295
2
Properties=species:S:1:pos:R:3:forces:R:3 energy=-90.02901562528352 pbc="F F F"
Re       0.00000000       0.00000000       0.00000000       0.00000000       0.00000000       0.00449861
Re       0.00000000       0.00000000       6.00000000       0.00000000       0.00000000      -0.00449861
