2
Properties=species:S:1:pos:R:3:forces:R:3 energy=27115.487801354728 pbc="F F F"
Rh       0.00000000       0.00000000       0.00000000       0.00000000       0.00000000 -129341.20312500
Rh       0.00000000       0.00000000       0.18000000       0.00000000       0.00000000  129341.20312500
2
Properties=species:S:1:pos:R:3:forces:R:3 energy=22084.872566979728 pbc="F F F"
Rh       0.00000000       0.00000000       0.00000000       0.00000000       0.00000000  -59410.00000000
Rh       0.00000000       0.00000000       0.23878788       0.00000000       0.00000000   59410.00000000
2
Properties=species:S:1:pos:R:3:forces:R:3 energy=18987.993660729728 pbc="F F F"
Rh       0.00000000       0.00000000       0.00000000       0.00000000       0.00000000  -51289.35546875
Rh       0.00000000       0.00000000       0.29757576       0.00000000       0.00000000   51289.35546875
2
Properties=species:S:1:pos:R:3:forces:R:3 energy=15680.462410731312 pbc="F F F"
Rh       0.00000000       0.00000000       0.00000000       0.00000000       0.00000000  -62732.24218750
Rh       0.00000000       0.00000000       0.35636364       0.00000000       0.00000000   62732.24218750
2
Properties=species:S:1:pos:R:3:forces:R:3 energy=11604.108895106312 pbc="F F F"
Rh       0.00000000       0.00000000       0.00000000       0.00000000       0.00000000  -74646.12500000
Rh       0.00000000       0.00000000       0.41515152       0.00000000       0.00000000   74646.12500000
2
Properties=species:S:1:pos:R:3:forces:R:3 energy=7044.8393638578955 pbc="F F F"
Rh       0.00000000       0.00000000       0.00000000       0.00000000       0.00000000  -74883.46875000
Rh       0.00000000       0.00000000       0.47393939       0.00000000       0.00000000   74883.46875000
2
Properties=species:S:1:pos:R:3:forces:R:3 energy=3263.056649017313 pbc="F F F"
Rh       0.00000000       0.00000000       0.00000000       0.00000000       0.00000000  -51431.75390625
Rh       0.00000000       0.00000000       0.53272727       0.00000000       0.00000000   51431.75390625
2
Properties=species:S:1:pos:R:3:forces:R:3 energy=820.3972251955237 pbc="F F F"
Rh       0.00000000       0.00000000       0.00000000       0.00000000       0.00000000  -24745.70117188
Rh       0.00000000       0.00000000       0.59151515       0.00000000       0.00000000   24745.70117188
2
Properties=species:S:1:pos:R:3:forces:R:3 energy=82.95407945307397 pbc="F F F"
Rh       0.00000000       0.00000000       0.00000000       0.00000000       0.00000000   -3710.76098633
Rh       0.00000000       0.00000000       0.65030303       0.00000000       0.00000000    3710.76098633
2
Properties=species:S:1:pos:R:3:forces:R:3 energy=14.613110381635815 pbc="F F F"
Rh       0.00000000       0.00000000       0.00000000       0.00000000       0.00000000    -586.74951172
Rh       0.00000000       0.00000000       0.70909091       0.00000000       0.00000000     586.74951172
2
Properties=species:S:1:pos:R:3:forces:R:3 energy=10.207756856084082 pbc="F F F"
Rh       0.00000000       0.00000000       0.00000000       0.00000000       0.00000000     -79.01592255
Rh       0.00000000       0.00000000       0.76787879       0.00000000       0.00000000      79.01592255
2
Properties=species:S:1:pos:R:3:forces:R:3 energy=7.306485067693943 pbc="F F F"
Rh       0.00000000       0.00000000       0.00000000       0.00000000       0.00000000     -71.24362183
Rh       0.00000000       0.00000000       0.82666667       0.00000000       0.00000000      71.24362183
2
Properties=species:S:1:pos:R:3:forces:R:3 energy=2.548626838844088 pbc="F F F"
Rh       0.00000000       0.00000000       0.00000000       0.00000000       0.00000000     -71.63774872
Rh       0.00000000       0.00000000       0.88545455       0.00000000       0.00000000      71.63774872
2
Properties=species:S:1:pos:R:3:forces:R:3 energy=-0.457682608660724 pbc="F F F"
Rh       0.00000000       0.00000000       0.00000000       0.00000000       0.00000000     -36.61725235
Rh       0.00000000       0.00000000       0.94424242       0.00000000       0.00000000      36.61725235
2
Properties=species:S:1:pos:R:3:forces:R:3 energy=-2.5342053486940523 pbc="F F F"
Rh       0.00000000       0.00000000       0.00000000       0.00000000       0.00000000     -37.00975418
Rh       0.00000000       0.00000000       1.00303030       0.00000000       0.00000000      37.00975418
2
Properties=species:S:1:pos:R:3:forces:R:3 energy=-4.714810166177016 pbc="F F F"
Rh       0.00000000       0.00000000       0.00000000       0.00000000       0.00000000     -33.91999435
Rh       0.00000000       0.00000000       1.06181818       0.00000000       0.00000000      33.91999435
2
Properties=species:S:1:pos:R:3:forces:R:3 energy=-7.634632703824824 pbc="F F F"
Rh       0.00000000       0.00000000       0.00000000       0.00000000       0.00000000     -73.56085205
Rh       0.00000000       0.00000000       1.12060606       0.00000000       0.00000000      73.56085205
2
Properties=species:S:1:pos:R:3:forces:R:3 energy=-10.962070855576394 pbc="F F F"
Rh       0.00000000       0.00000000       0.00000000       0.00000000       0.00000000     -34.18067932
Rh       0.00000000       0.00000000       1.17939394       0.00000000       0.00000000      34.18067932
2
Properties=species:S:1:pos:R:3:forces:R:3 energy=-12.14451993505138 pbc="F F F"
Rh       0.00000000       0.00000000       0.00000000       0.00000000       0.00000000     -12.81956673
Rh       0.00000000       0.00000000       1.23818182       0.00000000       0.00000000      12.81956673
2
Properties=species:S:1:pos:R:3:forces:R:3 energy=-13.125287807749316 pbc="F F F"
Rh       0.00000000       0.00000000       0.00000000       0.00000000       0.00000000     -23.02050018
Rh       0.00000000       0.00000000       1.29696970       0.00000000       0.00000000      23.02050018
2
Properties=species:S:1:pos:R:3:forces:R:3 energy=-14.7732480540225 pbc="F F F"
Rh       0.00000000       0.00000000       0.00000000       0.00000000       0.00000000     -30.83920670
Rh       0.00000000       0.00000000       1.35575758       0.00000000       0.00000000      30.83920670
2
Properties=species:S:1:pos:R:3:forces:R:3 energy=-16.751978686727355 pbc="F F F"
Rh       0.00000000       0.00000000       0.00000000       0.00000000       0.00000000     -40.20304871
Rh       0.00000000       0.00000000       1.41454545       0.00000000       0.00000000      40.20304871
2
Properties=species:S:1:pos:R:3:forces:R:3 energy=-19.86882794295145 pbc="F F F"
Rh       0.00000000       0.00000000       0.00000000       0.00000000       0.00000000     -64.08658600
Rh       0.00000000       0.00000000       1.47333333       0.00000000       0.00000000      64.08658600
2
Properties=species:S:1:pos:R:3:forces:R:3 energy=-23.784468945167347 pbc="F F F"
Rh       0.00000000       0.00000000       0.00000000       0.00000000       0.00000000     -65.79711151
Rh       0.00000000       0.00000000       1.53212121       0.00000000       0.00000000      65.79711151
2
Properties=species:S:1:pos:R:3:forces:R:3 energy=-27.426903073424977 pbc="F F F"
Rh       0.00000000       0.00000000       0.00000000       0.00000000       0.00000000     -57.71214294
Rh       0.00000000       0.00000000       1.59090909       0.00000000       0.00000000      57.71214294
2
Properties=species:S:1:pos:R:3:forces:R:3 energy=-30.565915245589032 pbc="F F F"
Rh       0.00000000       0.00000000       0.00000000       0.00000000       0.00000000     -49.18734360
Rh       0.00000000       0.00000000       1.64969697       0.00000000       0.00000000      49.18734360
2
Properties=species:S:1:pos:R:3:forces:R:3 energy=-33.22162228194499 pbc="F F F"
Rh       0.00000000       0.00000000       0.00000000       0.00000000       0.00000000     -41.23278809
Rh       0.00000000       0.00000000       1.70848485       0.00000000       0.00000000      41.23278809
2
Properties=species:S:1:pos:R:3:forces:R:3 energy=-35.422640194219554 pbc="F F F"
Rh       0.00000000       0.00000000       0.00000000       0.00000000       0.00000000     -33.74564362
Rh       0.00000000       0.00000000       1.76727273       0.00000000       0.00000000      33.74564362
2
Properties=species:S:1:pos:R:3:forces:R:3 energy=-37.204670898848455 pbc="F F F"
Rh       0.00000000       0.00000000       0.00000000       0.00000000       0.00000000     -27.03140450
Rh       0.00000000       0.00000000       1.82606061       0.00000000       0.00000000      27.03140450
2
Properties=species:S:1:pos:R:3:forces:R:3 energy=-38.61724097314695 pbc="F F F"
Rh       0.00000000       0.00000000       0.00000000       0.00000000       0.00000000     -21.13174629
Rh       0.00000000       0.00000000       1.88484848       0.00000000       0.00000000      21.13174629
2
Properties=species:S:1:pos:R:3:forces:R:3 energy=-39.69677770099096 pbc="F F F"
Rh       0.00000000       0.00000000       0.00000000       0.00000000       0.00000000     -15.62550354
Rh       0.00000000       0.00000000       1.94363636       0.00000000       0.00000000      15.62550354
2
Properties=species:S:1:pos:R:3:forces:R:3 energy=-40.45770963118651 pbc="F F F"
Rh       0.00000000       0.00000000       0.00000000       0.00000000       0.00000000     -10.30783844
Rh       0.00000000       0.00000000       2.00242424       0.00000000       0.00000000      10.30783844
2
Properties=species:S:1:pos:R:3:forces:R:3 energy=-40.91841459493344 pbc="F F F"
Rh       0.00000000       0.00000000       0.00000000       0.00000000       0.00000000      -5.48749685
Rh       0.00000000       0.00000000       2.06121212       0.00000000       0.00000000       5.48749685
2
Properties=species:S:1:pos:R:3:forces:R:3 energy=-41.12118263750954 pbc="F F F"
Rh       0.00000000       0.00000000       0.00000000       0.00000000       0.00000000      -1.59297597
Rh       0.00000000       0.00000000       2.12000000       0.00000000       0.00000000       1.59297597
2
Properties=species:S:1:pos:R:3:forces:R:3 energy=-41.128902031539454 pbc="F F F"
Rh       0.00000000       0.00000000       0.00000000       0.00000000       0.00000000       1.12662816
Rh       0.00000000       0.00000000       2.17878788       0.00000000       0.00000000      -1.12662816
2
Properties=species:S:1:pos:R:3:forces:R:3 energy=-41.011724549384354 pbc="F F F"
Rh       0.00000000       0.00000000       0.00000000       0.00000000       0.00000000       2.68344903
Rh       0.00000000       0.00000000       2.23757576       0.00000000       0.00000000      -2.68344903
2
Properties=species:S:1:pos:R:3:forces:R:3 energy=-40.830160878979825 pbc="F F F"
Rh       0.00000000       0.00000000       0.00000000       0.00000000       0.00000000       3.38945317
Rh       0.00000000       0.00000000       2.29636364       0.00000000       0.00000000      -3.38945317
2
Properties=species:S:1:pos:R:3:forces:R:3 energy=-40.62143491096358 pbc="F F F"
Rh       0.00000000       0.00000000       0.00000000       0.00000000       0.00000000       3.66528082
Rh       0.00000000       0.00000000       2.35515152       0.00000000       0.00000000      -3.66528082
2
Properties=species:S:1:pos:R:3:forces:R:3 energy=-40.40374192062549 pbc="F F F"
Rh       0.00000000       0.00000000       0.00000000       0.00000000       0.00000000       3.70494103
Rh       0.00000000       0.00000000       2.41393939       0.00000000       0.00000000      -3.70494103
2
Properties=species:S:1:pos:R:3:forces:R:3 energy=-40.18917871141354 pbc="F F F"
Rh       0.00000000       0.00000000       0.00000000       0.00000000       0.00000000       3.58117294
Rh       0.00000000       0.00000000       2.47272727       0.00000000       0.00000000      -3.58117294
2
Properties=species:S:1:pos:R:3:forces:R:3 energy=-39.981618054968806 pbc="F F F"
Rh       0.00000000       0.00000000       0.00000000       0.00000000       0.00000000       3.51020145
Rh       0.00000000       0.00000000       2.53151515       0.00000000       0.00000000      -3.51020145
2
Properties=species:S:1:pos:R:3:forces:R:3 energy=-39.77187744644015 pbc="F F F"
Rh       0.00000000       0.00000000       0.00000000       0.00000000       0.00000000       3.66244745
Rh       0.00000000       0.00000000       2.59030303       0.00000000       0.00000000      -3.66244745
2
Properties=species:S:1:pos:R:3:forces:R:3 energy=-39.548476889846945 pbc="F F F"
Rh       0.00000000       0.00000000       0.00000000       0.00000000       0.00000000       3.93871307
Rh       0.00000000       0.00000000       2.64909091       0.00000000       0.00000000      -3.93871307
2
Properties=species:S:1:pos:R:3:forces:R:3 energy=-39.311016192312415 pbc="F F F"
Rh       0.00000000       0.00000000       0.00000000       0.00000000       0.00000000       4.10560846
Rh       0.00000000       0.00000000       2.70787879       0.00000000       0.00000000      -4.10560846
2
Properties=species:S:1:pos:R:3:forces:R:3 energy=-39.07033958876304 pbc="F F F"
Rh       0.00000000       0.00000000       0.00000000       0.00000000       0.00000000       4.04537916
Rh       0.00000000       0.00000000       2.76666667       0.00000000       0.00000000      -4.04537916
2
Properties=species:S:1:pos:R:3:forces:R:3 energy=-38.838721892588545 pbc="F F F"
Rh       0.00000000       0.00000000       0.00000000       0.00000000       0.00000000       3.81578922
Rh       0.00000000       0.00000000       2.82545455       0.00000000       0.00000000      -3.81578922
2
Properties=species:S:1:pos:R:3:forces:R:3 energy=-38.62300528467375 pbc="F F F"
Rh       0.00000000       0.00000000       0.00000000       0.00000000       0.00000000       3.51608372
Rh       0.00000000       0.00000000       2.88424242       0.00000000       0.00000000      -3.51608372
2
Properties=species:S:1:pos:R:3:forces:R:3 energy=-38.4261954676798 pbc="F F F"
Rh       0.00000000       0.00000000       0.00000000       0.00000000       0.00000000       3.16962719
Rh       0.00000000       0.00000000       2.94303030       0.00000000       0.00000000      -3.16962719
2
Properties=species:S:1:pos:R:3:forces:R:3 energy=-38.25172522002611 pbc="F F F"
Rh       0.00000000       0.00000000       0.00000000       0.00000000       0.00000000       2.75371146
Rh       0.00000000       0.00000000       3.00181818       0.00000000       0.00000000      -2.75371146
2
Properties=species:S:1:pos:R:3:forces:R:3 energy=-38.103538520111016 pbc="F F F"
Rh       0.00000000       0.00000000       0.00000000       0.00000000       0.00000000       2.28297639
Rh       0.00000000       0.00000000       3.06060606       0.00000000       0.00000000      -2.28297639
2
Properties=species:S:1:pos:R:3:forces:R:3 energy=-37.98314219486061 pbc="F F F"
Rh       0.00000000       0.00000000       0.00000000       0.00000000       0.00000000       1.82036448
Rh       0.00000000       0.00000000       3.11939394       0.00000000       0.00000000      -1.82036448
2
Properties=species:S:1:pos:R:3:forces:R:3 energy=-37.88810138274546 pbc="F F F"
Rh       0.00000000       0.00000000       0.00000000       0.00000000       0.00000000       1.42816925
Rh       0.00000000       0.00000000       3.17818182       0.00000000       0.00000000      -1.42816925
2
Properties=species:S:1:pos:R:3:forces:R:3 energy=-37.81329453875236 pbc="F F F"
Rh       0.00000000       0.00000000       0.00000000       0.00000000       0.00000000       1.13334727
Rh       0.00000000       0.00000000       3.23696970       0.00000000       0.00000000      -1.13334727
2
Properties=species:S:1:pos:R:3:forces:R:3 energy=-37.75301499773309 pbc="F F F"
Rh       0.00000000       0.00000000       0.00000000       0.00000000       0.00000000       0.93165767
Rh       0.00000000       0.00000000       3.29575758       0.00000000       0.00000000      -0.93165767
2
Properties=species:S:1:pos:R:3:forces:R:3 energy=-37.702261422307544 pbc="F F F"
Rh       0.00000000       0.00000000       0.00000000       0.00000000       0.00000000       0.80601543
Rh       0.00000000       0.00000000       3.35454545       0.00000000       0.00000000      -0.80601543
2
Properties=species:S:1:pos:R:3:forces:R:3 energy=-37.657134787972915 pbc="F F F"
Rh       0.00000000       0.00000000       0.00000000       0.00000000       0.00000000       0.73717910
Rh       0.00000000       0.00000000       3.41333333       0.00000000       0.00000000      -0.73717910
2
Properties=species:S:1:pos:R:3:forces:R:3 energy=-37.61483464918594 pbc="F F F"
Rh       0.00000000       0.00000000       0.00000000       0.00000000       0.00000000       0.70695907
Rh       0.00000000       0.00000000       3.47212121       0.00000000       0.00000000      -0.70695907
2
Properties=species:S:1:pos:R:3:forces:R:3 energy=-37.57355617738274 pbc="F F F"
Rh       0.00000000       0.00000000       0.00000000       0.00000000       0.00000000       0.70021921
Rh       0.00000000       0.00000000       3.53090909       0.00000000       0.00000000      -0.70021921
2
Properties=species:S:1:pos:R:3:forces:R:3 energy=-37.532261282310735 pbc="F F F"
Rh       0.00000000       0.00000000       0.00000000       0.00000000       0.00000000       0.70614409
Rh       0.00000000       0.00000000       3.58969697       0.00000000       0.00000000      -0.70614409
2
Properties=species:S:1:pos:R:3:forces:R:3 energy=-37.49041921895018 pbc="F F F"
Rh       0.00000000       0.00000000       0.00000000       0.00000000       0.00000000       0.71776575
Rh       0.00000000       0.00000000       3.64848485       0.00000000       0.00000000      -0.71776575
2
Properties=species:S:1:pos:R:3:forces:R:3 energy=-37.447842587210005 pbc="F F F"
Rh       0.00000000       0.00000000       0.00000000       0.00000000       0.00000000       0.73074996
Rh       0.00000000       0.00000000       3.70727273       0.00000000       0.00000000      -0.73074996
2
Properties=species:S:1:pos:R:3:forces:R:3 energy=-37.40452325084414 pbc="F F F"
Rh       0.00000000       0.00000000       0.00000000       0.00000000       0.00000000       0.74264526
Rh       0.00000000       0.00000000       3.76606061       0.00000000       0.00000000      -0.74264526
2
Properties=species:S:1:pos:R:3:forces:R:3 energy=-37.36056754303488 pbc="F F F"
Rh       0.00000000       0.00000000       0.00000000       0.00000000       0.00000000       0.75236142
Rh       0.00000000       0.00000000       3.82484848       0.00000000       0.00000000      -0.75236142
2
Properties=species:S:1:pos:R:3:forces:R:3 energy=-37.31611233354957 pbc="F F F"
Rh       0.00000000       0.00000000       0.00000000       0.00000000       0.00000000       0.75952852
Rh       0.00000000       0.00000000       3.88363636       0.00000000       0.00000000      -0.75952852
2
Properties=species:S:1:pos:R:3:forces:R:3 energy=-37.27132120453989 pbc="F F F"
Rh       0.00000000       0.00000000       0.00000000       0.00000000       0.00000000       0.76381338
Rh       0.00000000       0.00000000       3.94242424       0.00000000       0.00000000      -0.76381338
2
Properties=species:S:1:pos:R:3:forces:R:3 energy=-37.22638066118714 pbc="F F F"
Rh       0.00000000       0.00000000       0.00000000       0.00000000       0.00000000       0.76450205
Rh       0.00000000       0.00000000       4.00121212       0.00000000       0.00000000      -0.76450205
2
Properties=species:S:1:pos:R:3:forces:R:3 energy=-37.18153063977696 pbc="F F F"
Rh       0.00000000       0.00000000       0.00000000       0.00000000       0.00000000       0.76044238
Rh       0.00000000       0.00000000       4.06000000       0.00000000       0.00000000      -0.76044238
2
Properties=species:S:1:pos:R:3:forces:R:3 energy=-37.13708742439323 pbc="F F F"
Rh       0.00000000       0.00000000       0.00000000       0.00000000       0.00000000       0.75029558
Rh       0.00000000       0.00000000       4.11878788       0.00000000       0.00000000      -0.75029558
2
Properties=species:S:1:pos:R:3:forces:R:3 energy=-37.093451262057464 pbc="F F F"
Rh       0.00000000       0.00000000       0.00000000       0.00000000       0.00000000       0.73295450
Rh       0.00000000       0.00000000       4.17757576       0.00000000       0.00000000      -0.73295450
2
Properties=species:S:1:pos:R:3:forces:R:3 energy=-37.05106060695247 pbc="F F F"
Rh       0.00000000       0.00000000       0.00000000       0.00000000       0.00000000       0.70804566
Rh       0.00000000       0.00000000       4.23636364       0.00000000       0.00000000      -0.70804566
2
Properties=species:S:1:pos:R:3:forces:R:3 energy=-37.010338717828425 pbc="F F F"
Rh       0.00000000       0.00000000       0.00000000       0.00000000       0.00000000       0.67626369
Rh       0.00000000       0.00000000       4.29515152       0.00000000       0.00000000      -0.67626369
2
Properties=species:S:1:pos:R:3:forces:R:3 energy=-36.97164789113916 pbc="F F F"
Rh       0.00000000       0.00000000       0.00000000       0.00000000       0.00000000       0.63948548
Rh       0.00000000       0.00000000       4.35393939       0.00000000       0.00000000      -0.63948548
2
Properties=species:S:1:pos:R:3:forces:R:3 energy=-36.93519791622736 pbc="F F F"
Rh       0.00000000       0.00000000       0.00000000       0.00000000       0.00000000       0.60045916
Rh       0.00000000       0.00000000       4.41272727       0.00000000       0.00000000      -0.60045916
2
Properties=species:S:1:pos:R:3:forces:R:3 energy=-36.90103081336765 pbc="F F F"
Rh       0.00000000       0.00000000       0.00000000       0.00000000       0.00000000       0.56225783
Rh       0.00000000       0.00000000       4.47151515       0.00000000       0.00000000      -0.56225783
2
Properties=species:S:1:pos:R:3:forces:R:3 energy=-36.86902085752528 pbc="F F F"
Rh       0.00000000       0.00000000       0.00000000       0.00000000       0.00000000       0.52751482
Rh       0.00000000       0.00000000       4.53030303       0.00000000       0.00000000      -0.52751482
2
Properties=species:S:1:pos:R:3:forces:R:3 energy=-36.83890890429587 pbc="F F F"
Rh       0.00000000       0.00000000       0.00000000       0.00000000       0.00000000       0.49777824
Rh       0.00000000       0.00000000       4.58909091       0.00000000       0.00000000      -0.49777824
2
Properties=species:S:1:pos:R:3:forces:R:3 energy=-36.81039394580762 pbc="F F F"
Rh       0.00000000       0.00000000       0.00000000       0.00000000       0.00000000       0.47307017
Rh       0.00000000       0.00000000       4.64787879       0.00000000       0.00000000      -0.47307017
2
Properties=species:S:1:pos:R:3:forces:R:3 energy=-36.783217035645016 pbc="F F F"
Rh       0.00000000       0.00000000       0.00000000       0.00000000       0.00000000       0.45187250
Rh       0.00000000       0.00000000       4.70666667       0.00000000       0.00000000      -0.45187250
2
Properties=species:S:1:pos:R:3:forces:R:3 energy=-36.757249036389474 pbc="F F F"
Rh       0.00000000       0.00000000       0.00000000       0.00000000       0.00000000       0.43151605
Rh       0.00000000       0.00000000       4.76545455       0.00000000       0.00000000      -0.43151605
2
Properties=species:S:1:pos:R:3:forces:R:3 energy=-36.73252494080729 pbc="F F F"
Rh       0.00000000       0.00000000       0.00000000       0.00000000       0.00000000       0.40887389
Rh       0.00000000       0.00000000       4.82424242       0.00000000       0.00000000      -0.40887389
2
Properties=species:S:1:pos:R:3:forces:R:3 energy=-36.709274405266925 pbc="F F F"
Rh       0.00000000       0.00000000       0.00000000       0.00000000       0.00000000       0.38119203
Rh       0.00000000       0.00000000       4.88303030       0.00000000       0.00000000      -0.38119203
2
Properties=species:S:1:pos:R:3:forces:R:3 energy=-36.687837786801346 pbc="F F F"
Rh       0.00000000       0.00000000       0.00000000       0.00000000       0.00000000       0.34679812
Rh       0.00000000       0.00000000       4.94181818       0.00000000       0.00000000      -0.34679812
2
Properties=species:S:1:pos:R:3:forces:R:3 energy=-36.66863564453687 pbc="F F F"
Rh       0.00000000       0.00000000       0.00000000       0.00000000       0.00000000       0.30546376
Rh       0.00000000       0.00000000       5.00060606       0.00000000       0.00000000      -0.30546376
2
Properties=species:S:1:pos:R:3:forces:R:3 energy=-36.652035225288834 pbc="F F F"
Rh       0.00000000       0.00000000       0.00000000       0.00000000       0.00000000       0.25841504
Rh       0.00000000       0.00000000       5.05939394       0.00000000       0.00000000      -0.25841504
2
Properties=species:S:1:pos:R:3:forces:R:3 energy=-36.63831608852063 pbc="F F F"
Rh       0.00000000       0.00000000       0.00000000       0.00000000       0.00000000       0.20799790
Rh       0.00000000       0.00000000       5.11818182       0.00000000       0.00000000      -0.20799790
2
Properties=species:S:1:pos:R:3:forces:R:3 energy=-36.62758619725904 pbc="F F F"
Rh       0.00000000       0.00000000       0.00000000       0.00000000       0.00000000       0.15728760
Rh       0.00000000       0.00000000       5.17696970       0.00000000       0.00000000      -0.15728760
2
Properties=species:S:1:pos:R:3:forces:R:3 energy=-36.6197666307948 pbc="F F F"
Rh       0.00000000       0.00000000       0.00000000       0.00000000       0.00000000       0.10960709
Rh       0.00000000       0.00000000       5.23575758       0.00000000       0.00000000      -0.10960709
2
Properties=species:S:1:pos:R:3:forces:R:3 energy=-36.61458013425513 pbc="F F F"
Rh       0.00000000       0.00000000       0.00000000       0.00000000       0.00000000       0.06804878
Rh       0.00000000       0.00000000       5.29454545       0.00000000       0.00000000      -0.06804878
2
Properties=species:S:1:pos:R:3:forces:R:3 energy=-36.61160069858082 pbc="F F F"
Rh       0.00000000       0.00000000       0.00000000       0.00000000       0.00000000       0.03492264
Rh       0.00000000       0.00000000       5.35333333       0.00000000       0.00000000      -0.03492264
2
Properties=species:S:1:pos:R:3:forces:R:3 energy=-36.61028023252085 pbc="F F F"
Rh       0.00000000       0.00000000       0.00000000       0.00000000       0.00000000       0.01172433
Rh       0.00000000       0.00000000       5.41212121       0.00000000       0.00000000      -0.01172433
2
Properties=species:S:1:pos:R:3:forces:R:3 energy=-36.60999815448876 pbc="F F F"
Rh       0.00000000       0.00000000       0.00000000       0.00000000       0.00000000      -0.00023541
Rh       0.00000000       0.00000000       5.47090909       0.00000000       0.00000000       0.00023541
2
Properties=species:S:1:pos:R:3:forces:R:3 energy=-36.610103335225645 pbc="F F F"
Rh       0.00000000       0.00000000       0.00000000       0.00000000       0.00000000      -0.00207086
Rh       0.00000000       0.00000000       5.52969697       0.00000000       0.00000000       0.00207086
2
Properties=species:S:1:pos:R:3:forces:R:3 energy=-36.61018491121173 pbc="F F F"
Rh       0.00000000       0.00000000       0.00000000       0.00000000       0.00000000      -0.00084881
Rh       0.00000000       0.00000000       5.58848485       0.00000000       0.00000000       0.00084881
2
Properties=species:S:1:pos:R:3:forces:R:3 energy=-36.610255419437465 pbc="F F F"
Rh       0.00000000       0.00000000       0.00000000       0.00000000       0.00000000      -0.00200183
Rh       0.00000000       0.00000000       5.64727273       0.00000000       0.00000000       0.00200183
2
Properties=species:S:1:pos:R:3:forces:R:3 energy=-36.61040742158856 pbc="F F F"
Rh       0.00000000       0.00000000       0.00000000       0.00000000       0.00000000      -0.00242201
Rh       0.00000000       0.00000000       5.70606061       0.00000000       0.00000000       0.00242201
2
Properties=species:S:1:pos:R:3:forces:R:3 energy=-36.610439668465744 pbc="F F F"
Rh       0.00000000       0.00000000       0.00000000       0.00000000       0.00000000       0.00189946
Rh       0.00000000       0.00000000       5.76484848       0.00000000       0.00000000      -0.00189946
2
Properties=species:S:1:pos:R:3:forces:R:3 energy=-36.610177555145896 pbc="F F F"
Rh       0.00000000       0.00000000       0.00000000       0.00000000       0.00000000       0.00653967
Rh       0.00000000       0.00000000       5.82363636       0.00000000       0.00000000      -0.00653967
2
Properties=species:S:1:pos:R:3:forces:R:3 energy=-36.609751544781176 pbc="F F F"
Rh       0.00000000       0.00000000       0.00000000       0.00000000       0.00000000       0.00749182
Rh       0.00000000       0.00000000       5.88242424       0.00000000       0.00000000      -0.00749182
2
Properties=species:S:1:pos:R:3:forces:R:3 energy=-36.609330165133045 pbc="F F F"
Rh       0.00000000       0.00000000       0.00000000       0.00000000       0.00000000       0.00673248
Rh       0.00000000       0.00000000       5.94121212       0.00000000       0.00000000      -0.00673248
2
Properties=species:S:1:pos:R:3:forces:R:3 energy=-36.60895215793275 pbc="F F F"
Rh       0.00000000       0.00000000       0.00000000       0.00000000       0.00000000       0.00622038
Rh       0.00000000       0.00000000       6.00000000       0.00000000       0.00000000      -0.00622038
