2
Properties=species:S:1:pos:R:3:forces:R:3 energy=-184940.95056996218 pbc="F F F"
Ru       0.00000000       0.00000000       0.00000000       0.00000000       0.00000000  -64571.27343750
Ru       0.00000000       0.00000000       0.18000000       0.00000000       0.00000000   64571.27343750
2
Properties=species:S:1:pos:R:3:forces:R:3 energy=-183615.91931996218 pbc="F F F"
Ru       0.00000000       0.00000000       0.00000000       0.00000000       0.00000000  103478.82031250
Ru       0.00000000       0.00000000       0.23878788       0.00000000       0.00000000 -103478.82031250
2
Properties=species:S:1:pos:R:3:forces:R:3 energy=-172544.48181996218 pbc="F F F"
Ru       0.00000000       0.00000000       0.00000000       0.00000000       0.00000000  278793.68750000
Ru       0.00000000       0.00000000       0.29757576       0.00000000       0.00000000 -278793.68750000
2
Properties=species:S:1:pos:R:3:forces:R:3 energy=-150312.2943199614 pbc="F F F"
Ru       0.00000000       0.00000000       0.00000000       0.00000000       0.00000000  478364.87500000
Ru       0.00000000       0.00000000       0.35636364       0.00000000       0.00000000 -478364.87500000
2
Properties=species:S:1:pos:R:3:forces:R:3 energy=-117011.7943199606 pbc="F F F"
Ru       0.00000000       0.00000000       0.00000000       0.00000000       0.00000000  640212.43750000
Ru       0.00000000       0.00000000       0.41515152       0.00000000       0.00000000 -640212.43750000
2
Properties=species:S:1:pos:R:3:forces:R:3 energy=-77701.3099449598 pbc="F F F"
Ru       0.00000000       0.00000000       0.00000000       0.00000000       0.00000000  668272.87500000
Ru       0.00000000       0.00000000       0.47393939       0.00000000       0.00000000 -668272.87500000
2
Properties=species:S:1:pos:R:3:forces:R:3 energy=-41861.17713245742 pbc="F F F"
Ru       0.00000000       0.00000000       0.00000000       0.00000000       0.00000000  526724.56250000
Ru       0.00000000       0.00000000       0.53272727       0.00000000       0.00000000 -526724.56250000
2
Properties=species:S:1:pos:R:3:forces:R:3 energy=-17364.30213245188 pbc="F F F"
Ru       0.00000000       0.00000000       0.00000000       0.00000000       0.00000000  305152.65625000
Ru       0.00000000       0.00000000       0.59151515       0.00000000       0.00000000 -305152.65625000
2
Properties=species:S:1:pos:R:3:forces:R:3 energy=-3296.147591429129 pbc="F F F"
Ru       0.00000000       0.00000000       0.00000000       0.00000000       0.00000000  112745.75000000
Ru       0.00000000       0.00000000       0.65030303       0.00000000       0.00000000 -112745.75000000
2
Properties=species:S:1:pos:R:3:forces:R:3 energy=-512.5264976664577 pbc="F F F"
Ru       0.00000000       0.00000000       0.00000000       0.00000000       0.00000000   13723.73046875
Ru       0.00000000       0.00000000       0.70909091       0.00000000       0.00000000  -13723.73046875
2
Properties=species:S:1:pos:R:3:forces:R:3 energy=21.32241363636577 pbc="F F F"
Ru       0.00000000       0.00000000       0.00000000       0.00000000       0.00000000    2005.17028809
Ru       0.00000000       0.00000000       0.76787879       0.00000000       0.00000000   -2005.17028809
2
Properties=species:S:1:pos:R:3:forces:R:3 energy=-35.12473752078977 pbc="F F F"
Ru       0.00000000       0.00000000       0.00000000       0.00000000       0.00000000    -773.15777588
Ru       0.00000000       0.00000000       0.82666667       0.00000000       0.00000000     773.15777588
2
Properties=species:S:1:pos:R:3:forces:R:3 energy=-66.60115883739317 pbc="F F F"
Ru       0.00000000       0.00000000       0.00000000       0.00000000       0.00000000    -575.09515381
Ru       0.00000000       0.00000000       0.88545455       0.00000000       0.00000000     575.09515381
2
Properties=species:S:1:pos:R:3:forces:R:3 energy=-91.15403048922566 pbc="F F F"
Ru       0.00000000       0.00000000       0.00000000       0.00000000       0.00000000    -200.21466064
Ru       0.00000000       0.00000000       0.94424242       0.00000000       0.00000000     200.21466064
2
Properties=species:S:1:pos:R:3:forces:R:3 energy=-97.16860255833653 pbc="F F F"
Ru       0.00000000       0.00000000       0.00000000       0.00000000       0.00000000      16.59157372
Ru       0.00000000       0.00000000       1.00303030       0.00000000       0.00000000     -16.59157372
2
Properties=species:S:1:pos:R:3:forces:R:3 energy=-94.20524644127568 pbc="F F F"
Ru       0.00000000       0.00000000       0.00000000       0.00000000       0.00000000      69.38154602
Ru       0.00000000       0.00000000       1.06181818       0.00000000       0.00000000     -69.38154602
2
Properties=species:S:1:pos:R:3:forces:R:3 energy=-88.52588687456786 pbc="F F F"
Ru       0.00000000       0.00000000       0.00000000       0.00000000       0.00000000     127.44872284
Ru       0.00000000       0.00000000       1.12060606       0.00000000       0.00000000    -127.44872284
2
Properties=species:S:1:pos:R:3:forces:R:3 energy=-79.42861192323203 pbc="F F F"
Ru       0.00000000       0.00000000       0.00000000       0.00000000       0.00000000     178.88725281
Ru       0.00000000       0.00000000       1.17939394       0.00000000       0.00000000    -178.88725281
2
Properties=species:S:1:pos:R:3:forces:R:3 energy=-67.93204492981549 pbc="F F F"
Ru       0.00000000       0.00000000       0.00000000       0.00000000       0.00000000     205.70413208
Ru       0.00000000       0.00000000       1.23818182       0.00000000       0.00000000    -205.70413208
2
Properties=species:S:1:pos:R:3:forces:R:3 energy=-56.17300381852762 pbc="F F F"
Ru       0.00000000       0.00000000       0.00000000       0.00000000       0.00000000     189.56347656
Ru       0.00000000       0.00000000       1.29696970       0.00000000       0.00000000    -189.56347656
2
Properties=species:S:1:pos:R:3:forces:R:3 energy=-45.28277519383107 pbc="F F F"
Ru       0.00000000       0.00000000       0.00000000       0.00000000       0.00000000     179.66305542
Ru       0.00000000       0.00000000       1.35575758       0.00000000       0.00000000    -179.66305542
2
Properties=species:S:1:pos:R:3:forces:R:3 energy=-37.29674035940129 pbc="F F F"
Ru       0.00000000       0.00000000       0.00000000       0.00000000       0.00000000      83.59259033
Ru       0.00000000       0.00000000       1.41454545       0.00000000       0.00000000     -83.59259033
2
Properties=species:S:1:pos:R:3:forces:R:3 energy=-34.47756028120768 pbc="F F F"
Ru       0.00000000       0.00000000       0.00000000       0.00000000       0.00000000      19.71335030
Ru       0.00000000       0.00000000       1.47333333       0.00000000       0.00000000     -19.71335030
2
Properties=species:S:1:pos:R:3:forces:R:3 energy=-34.3289161238966 pbc="F F F"
Ru       0.00000000       0.00000000       0.00000000       0.00000000       0.00000000      -9.20373535
Ru       0.00000000       0.00000000       1.53212121       0.00000000       0.00000000       9.20373535
2
Properties=species:S:1:pos:R:3:forces:R:3 energy=-35.10606070501196 pbc="F F F"
Ru       0.00000000       0.00000000       0.00000000       0.00000000       0.00000000     -15.97726440
Ru       0.00000000       0.00000000       1.59090909       0.00000000       0.00000000      15.97726440
2
Properties=species:S:1:pos:R:3:forces:R:3 energy=-36.210529042102394 pbc="F F F"
Ru       0.00000000       0.00000000       0.00000000       0.00000000       0.00000000     -21.21694374
Ru       0.00000000       0.00000000       1.64969697       0.00000000       0.00000000      21.21694374
2
Properties=species:S:1:pos:R:3:forces:R:3 energy=-37.463423271958185 pbc="F F F"
Ru       0.00000000       0.00000000       0.00000000       0.00000000       0.00000000     -20.34596634
Ru       0.00000000       0.00000000       1.70848485       0.00000000       0.00000000      20.34596634
2
Properties=species:S:1:pos:R:3:forces:R:3 energy=-38.557641207841264 pbc="F F F"
Ru       0.00000000       0.00000000       0.00000000       0.00000000       0.00000000     -16.89639854
Ru       0.00000000       0.00000000       1.76727273       0.00000000       0.00000000      16.89639854
2
Properties=species:S:1:pos:R:3:forces:R:3 energy=-39.45341850168359 pbc="F F F"
Ru       0.00000000       0.00000000       0.00000000       0.00000000       0.00000000     -13.57110977
Ru       0.00000000       0.00000000       1.82606061       0.00000000       0.00000000      13.57110977
2
Properties=species:S:1:pos:R:3:forces:R:3 energy=-40.154734034788696 pbc="F F F"
Ru       0.00000000       0.00000000       0.00000000       0.00000000       0.00000000     -10.34932804
Ru       0.00000000       0.00000000       1.88484848       0.00000000       0.00000000      10.34932804
2
Properties=species:S:1:pos:R:3:forces:R:3 energy=-40.68190520791114 pbc="F F F"
Ru       0.00000000       0.00000000       0.00000000       0.00000000       0.00000000      -7.69541073
Ru       0.00000000       0.00000000       1.94363636       0.00000000       0.00000000       7.69541073
2
Properties=species:S:1:pos:R:3:forces:R:3 energy=-41.069955360908715 pbc="F F F"
Ru       0.00000000       0.00000000       0.00000000       0.00000000       0.00000000      -5.56629992
Ru       0.00000000       0.00000000       2.00242424       0.00000000       0.00000000       5.56629992
2
Properties=species:S:1:pos:R:3:forces:R:3 energy=-41.34069804306791 pbc="F F F"
Ru       0.00000000       0.00000000       0.00000000       0.00000000       0.00000000      -3.66616297
Ru       0.00000000       0.00000000       2.06121212       0.00000000       0.00000000       3.66616297
2
Properties=species:S:1:pos:R:3:forces:R:3 energy=-41.50296997335837 pbc="F F F"
Ru       0.00000000       0.00000000       0.00000000       0.00000000       0.00000000      -1.87116218
Ru       0.00000000       0.00000000       2.12000000       0.00000000       0.00000000       1.87116218
2
Properties=species:S:1:pos:R:3:forces:R:3 energy=-41.56307235310956 pbc="F F F"
Ru       0.00000000       0.00000000       0.00000000       0.00000000       0.00000000      -0.19755918
Ru       0.00000000       0.00000000       2.17878788       0.00000000       0.00000000       0.19755918
2
Properties=species:S:1:pos:R:3:forces:R:3 energy=-41.52990230937114 pbc="F F F"
Ru       0.00000000       0.00000000       0.00000000       0.00000000       0.00000000       1.27986395
Ru       0.00000000       0.00000000       2.23757576       0.00000000       0.00000000      -1.27986395
2
Properties=species:S:1:pos:R:3:forces:R:3 energy=-41.42127491504618 pbc="F F F"
Ru       0.00000000       0.00000000       0.00000000       0.00000000       0.00000000       2.31060219
Ru       0.00000000       0.00000000       2.29636364       0.00000000       0.00000000      -2.31060219
2
Properties=species:S:1:pos:R:3:forces:R:3 energy=-41.27289321794061 pbc="F F F"
Ru       0.00000000       0.00000000       0.00000000       0.00000000       0.00000000       2.61180639
Ru       0.00000000       0.00000000       2.35515152       0.00000000       0.00000000      -2.61180639
2
Properties=species:S:1:pos:R:3:forces:R:3 energy=-41.12527406723814 pbc="F F F"
Ru       0.00000000       0.00000000       0.00000000       0.00000000       0.00000000       2.36273360
Ru       0.00000000       0.00000000       2.41393939       0.00000000       0.00000000      -2.36273360
2
Properties=species:S:1:pos:R:3:forces:R:3 energy=-40.994985352498865 pbc="F F F"
Ru       0.00000000       0.00000000       0.00000000       0.00000000       0.00000000       2.10774636
Ru       0.00000000       0.00000000       2.47272727       0.00000000       0.00000000      -2.10774636
2
Properties=species:S:1:pos:R:3:forces:R:3 energy=-40.87139226344926 pbc="F F F"
Ru       0.00000000       0.00000000       0.00000000       0.00000000       0.00000000       2.14931655
Ru       0.00000000       0.00000000       2.53151515       0.00000000       0.00000000      -2.14931655
2
Properties=species:S:1:pos:R:3:forces:R:3 energy=-40.73701364376751 pbc="F F F"
Ru       0.00000000       0.00000000       0.00000000       0.00000000       0.00000000       2.45828485
Ru       0.00000000       0.00000000       2.59030303       0.00000000       0.00000000      -2.45828485
2
Properties=species:S:1:pos:R:3:forces:R:3 energy=-40.579568151256645 pbc="F F F"
Ru       0.00000000       0.00000000       0.00000000       0.00000000       0.00000000       2.90482831
Ru       0.00000000       0.00000000       2.64909091       0.00000000       0.00000000      -2.90482831
2
Properties=species:S:1:pos:R:3:forces:R:3 energy=-40.397188320005434 pbc="F F F"
Ru       0.00000000       0.00000000       0.00000000       0.00000000       0.00000000       3.26717281
Ru       0.00000000       0.00000000       2.70787879       0.00000000       0.00000000      -3.26717281
2
Properties=species:S:1:pos:R:3:forces:R:3 energy=-40.19966883352062 pbc="F F F"
Ru       0.00000000       0.00000000       0.00000000       0.00000000       0.00000000       3.42457843
Ru       0.00000000       0.00000000       2.76666667       0.00000000       0.00000000      -3.42457843
2
Properties=species:S:1:pos:R:3:forces:R:3 energy=-39.99606286272888 pbc="F F F"
Ru       0.00000000       0.00000000       0.00000000       0.00000000       0.00000000       3.50102282
Ru       0.00000000       0.00000000       2.82545455       0.00000000       0.00000000      -3.50102282
2
Properties=species:S:1:pos:R:3:forces:R:3 energy=-39.78767178646713 pbc="F F F"
Ru       0.00000000       0.00000000       0.00000000       0.00000000       0.00000000       3.59344697
Ru       0.00000000       0.00000000       2.88424242       0.00000000       0.00000000      -3.59344697
2
Properties=species:S:1:pos:R:3:forces:R:3 energy=-39.57292698119778 pbc="F F F"
Ru       0.00000000       0.00000000       0.00000000       0.00000000       0.00000000       3.71699071
Ru       0.00000000       0.00000000       2.94303030       0.00000000       0.00000000      -3.71699071
2
Properties=species:S:1:pos:R:3:forces:R:3 energy=-39.350645478471456 pbc="F F F"
Ru       0.00000000       0.00000000       0.00000000       0.00000000       0.00000000       3.83779240
Ru       0.00000000       0.00000000       3.00181818       0.00000000       0.00000000      -3.83779240
2
Properties=species:S:1:pos:R:3:forces:R:3 energy=-39.12363143676575 pbc="F F F"
Ru       0.00000000       0.00000000       0.00000000       0.00000000       0.00000000       3.86085010
Ru       0.00000000       0.00000000       3.06060606       0.00000000       0.00000000      -3.86085010
2
Properties=species:S:1:pos:R:3:forces:R:3 energy=-38.90008867645528 pbc="F F F"
Ru       0.00000000       0.00000000       0.00000000       0.00000000       0.00000000       3.71395659
Ru       0.00000000       0.00000000       3.11939394       0.00000000       0.00000000      -3.71395659
2
Properties=species:S:1:pos:R:3:forces:R:3 energy=-38.69015421128288 pbc="F F F"
Ru       0.00000000       0.00000000       0.00000000       0.00000000       0.00000000       3.40612125
Ru       0.00000000       0.00000000       3.17818182       0.00000000       0.00000000      -3.40612125
2
Properties=species:S:1:pos:R:3:forces:R:3 energy=-38.50138626325836 pbc="F F F"
Ru       0.00000000       0.00000000       0.00000000       0.00000000       0.00000000       3.00812006
Ru       0.00000000       0.00000000       3.23696970       0.00000000       0.00000000      -3.00812006
2
Properties=species:S:1:pos:R:3:forces:R:3 energy=-38.3365887964309 pbc="F F F"
Ru       0.00000000       0.00000000       0.00000000       0.00000000       0.00000000       2.60329771
Ru       0.00000000       0.00000000       3.29575758       0.00000000       0.00000000      -2.60329771
2
Properties=species:S:1:pos:R:3:forces:R:3 energy=-38.19423192712766 pbc="F F F"
Ru       0.00000000       0.00000000       0.00000000       0.00000000       0.00000000       2.25195408
Ru       0.00000000       0.00000000       3.35454545       0.00000000       0.00000000      -2.25195408
2
Properties=species:S:1:pos:R:3:forces:R:3 energy=-38.07020693495391 pbc="F F F"
Ru       0.00000000       0.00000000       0.00000000       0.00000000       0.00000000       1.98169684
Ru       0.00000000       0.00000000       3.41333333       0.00000000       0.00000000      -1.98169684
2
Properties=species:S:1:pos:R:3:forces:R:3 energy=-37.959607783436915 pbc="F F F"
Ru       0.00000000       0.00000000       0.00000000       0.00000000       0.00000000       1.79388452
Ru       0.00000000       0.00000000       3.47212121       0.00000000       0.00000000      -1.79388452
2
Properties=species:S:1:pos:R:3:forces:R:3 energy=-37.85794421434722 pbc="F F F"
Ru       0.00000000       0.00000000       0.00000000       0.00000000       0.00000000       1.67452455
Ru       0.00000000       0.00000000       3.53090909       0.00000000       0.00000000      -1.67452455
2
Properties=species:S:1:pos:R:3:forces:R:3 energy=-37.76179026365684 pbc="F F F"
Ru       0.00000000       0.00000000       0.00000000       0.00000000       0.00000000       1.60260284
Ru       0.00000000       0.00000000       3.58969697       0.00000000       0.00000000      -1.60260284
2
Properties=species:S:1:pos:R:3:forces:R:3 energy=-37.669066539633434 pbc="F F F"
Ru       0.00000000       0.00000000       0.00000000       0.00000000       0.00000000       1.55360234
Ru       0.00000000       0.00000000       3.64848485       0.00000000       0.00000000      -1.55360234
2
Properties=species:S:1:pos:R:3:forces:R:3 energy=-37.57918902929582 pbc="F F F"
Ru       0.00000000       0.00000000       0.00000000       0.00000000       0.00000000       1.50156426
Ru       0.00000000       0.00000000       3.70727273       0.00000000       0.00000000      -1.50156426
2
Properties=species:S:1:pos:R:3:forces:R:3 energy=-37.493023280865074 pbc="F F F"
Ru       0.00000000       0.00000000       0.00000000       0.00000000       0.00000000       1.42409182
Ru       0.00000000       0.00000000       3.76606061       0.00000000       0.00000000      -1.42409182
2
Properties=species:S:1:pos:R:3:forces:R:3 energy=-37.41248771484671 pbc="F F F"
Ru       0.00000000       0.00000000       0.00000000       0.00000000       0.00000000       1.30944383
Ru       0.00000000       0.00000000       3.82484848       0.00000000       0.00000000      -1.30944383
2
Properties=species:S:1:pos:R:3:forces:R:3 energy=-37.339744906626436 pbc="F F F"
Ru       0.00000000       0.00000000       0.00000000       0.00000000       0.00000000       1.16048300
Ru       0.00000000       0.00000000       3.88363636       0.00000000       0.00000000      -1.16048300
2
Properties=species:S:1:pos:R:3:forces:R:3 energy=-37.276419562443316 pbc="F F F"
Ru       0.00000000       0.00000000       0.00000000       0.00000000       0.00000000       0.99237543
Ru       0.00000000       0.00000000       3.94242424       0.00000000       0.00000000      -0.99237543
2
Properties=species:S:1:pos:R:3:forces:R:3 energy=-37.22303776522741 pbc="F F F"
Ru       0.00000000       0.00000000       0.00000000       0.00000000       0.00000000       0.82565248
Ru       0.00000000       0.00000000       4.00121212       0.00000000       0.00000000      -0.82565248
2
Properties=species:S:1:pos:R:3:forces:R:3 energy=-37.17894689446753 pbc="F F F"
Ru       0.00000000       0.00000000       0.00000000       0.00000000       0.00000000       0.67892462
Ru       0.00000000       0.00000000       4.06000000       0.00000000       0.00000000      -0.67892462
2
Properties=species:S:1:pos:R:3:forces:R:3 energy=-37.14257881339615 pbc="F F F"
Ru       0.00000000       0.00000000       0.00000000       0.00000000       0.00000000       0.56443518
Ru       0.00000000       0.00000000       4.11878788       0.00000000       0.00000000      -0.56443518
2
Properties=species:S:1:pos:R:3:forces:R:3 energy=-37.11185426332945 pbc="F F F"
Ru       0.00000000       0.00000000       0.00000000       0.00000000       0.00000000       0.48697096
Ru       0.00000000       0.00000000       4.17757576       0.00000000       0.00000000      -0.48697096
2
Properties=species:S:1:pos:R:3:forces:R:3 energy=-37.08461771222917 pbc="F F F"
Ru       0.00000000       0.00000000       0.00000000       0.00000000       0.00000000       0.44520810
Ru       0.00000000       0.00000000       4.23636364       0.00000000       0.00000000      -0.44520810
2
Properties=species:S:1:pos:R:3:forces:R:3 energy=-37.058912036664346 pbc="F F F"
Ru       0.00000000       0.00000000       0.00000000       0.00000000       0.00000000       0.43388444
Ru       0.00000000       0.00000000       4.29515152       0.00000000       0.00000000      -0.43388444
2
Properties=species:S:1:pos:R:3:forces:R:3 energy=-37.03315020219525 pbc="F F F"
Ru       0.00000000       0.00000000       0.00000000       0.00000000       0.00000000       0.44583026
Ru       0.00000000       0.00000000       4.35393939       0.00000000       0.00000000      -0.44583026
2
Properties=species:S:1:pos:R:3:forces:R:3 energy=-37.0061877156949 pbc="F F F"
Ru       0.00000000       0.00000000       0.00000000       0.00000000       0.00000000       0.47337615
Ru       0.00000000       0.00000000       4.41272727       0.00000000       0.00000000      -0.47337615
2
Properties=species:S:1:pos:R:3:forces:R:3 energy=-36.97733028958967 pbc="F F F"
Ru       0.00000000       0.00000000       0.00000000       0.00000000       0.00000000       0.50916010
Ru       0.00000000       0.00000000       4.47151515       0.00000000       0.00000000      -0.50916010
2
Properties=species:S:1:pos:R:3:forces:R:3 energy=-36.946295686967055 pbc="F F F"
Ru       0.00000000       0.00000000       0.00000000       0.00000000       0.00000000       0.54636317
Ru       0.00000000       0.00000000       4.53030303       0.00000000       0.00000000      -0.54636317
2
Properties=species:S:1:pos:R:3:forces:R:3 energy=-36.91318701711091 pbc="F F F"
Ru       0.00000000       0.00000000       0.00000000       0.00000000       0.00000000       0.57867414
Ru       0.00000000       0.00000000       4.58909091       0.00000000       0.00000000      -0.57867414
2
Properties=species:S:1:pos:R:3:forces:R:3 energy=-36.87846986474088 pbc="F F F"
Ru       0.00000000       0.00000000       0.00000000       0.00000000       0.00000000       0.60021996
Ru       0.00000000       0.00000000       4.64787879       0.00000000       0.00000000      -0.60021996
2
Properties=species:S:1:pos:R:3:forces:R:3 energy=-36.84293031883902 pbc="F F F"
Ru       0.00000000       0.00000000       0.00000000       0.00000000       0.00000000       0.60574085
Ru       0.00000000       0.00000000       4.70666667       0.00000000       0.00000000      -0.60574085
2
Properties=species:S:1:pos:R:3:forces:R:3 energy=-36.80764065779739 pbc="F F F"
Ru       0.00000000       0.00000000       0.00000000       0.00000000       0.00000000       0.59121090
Ru       0.00000000       0.00000000       4.76545455       0.00000000       0.00000000      -0.59121090
2
Properties=species:S:1:pos:R:3:forces:R:3 energy=-36.77385252047166 pbc="F F F"
Ru       0.00000000       0.00000000       0.00000000       0.00000000       0.00000000       0.55465847
Ru       0.00000000       0.00000000       4.82424242       0.00000000       0.00000000      -0.55465847
2
Properties=species:S:1:pos:R:3:forces:R:3 energy=-36.74284814565896 pbc="F F F"
Ru       0.00000000       0.00000000       0.00000000       0.00000000       0.00000000       0.49691772
Ru       0.00000000       0.00000000       4.88303030       0.00000000       0.00000000      -0.49691772
2
Properties=species:S:1:pos:R:3:forces:R:3 energy=-36.71576869963363 pbc="F F F"
Ru       0.00000000       0.00000000       0.00000000       0.00000000       0.00000000       0.42181545
Ru       0.00000000       0.00000000       4.94181818       0.00000000       0.00000000      -0.42181545
2
Properties=species:S:1:pos:R:3:forces:R:3 energy=-36.69346550295378 pbc="F F F"
Ru       0.00000000       0.00000000       0.00000000       0.00000000       0.00000000       0.33571911
Ru       0.00000000       0.00000000       5.00060606       0.00000000       0.00000000      -0.33571911
2
Properties=species:S:1:pos:R:3:forces:R:3 energy=-36.676355076717 pbc="F F F"
Ru       0.00000000       0.00000000       0.00000000       0.00000000       0.00000000       0.24651544
Ru       0.00000000       0.00000000       5.05939394       0.00000000       0.00000000      -0.24651544
2
Properties=species:S:1:pos:R:3:forces:R:3 energy=-36.664377154755876 pbc="F F F"
Ru       0.00000000       0.00000000       0.00000000       0.00000000       0.00000000       0.16257244
Ru       0.00000000       0.00000000       5.11818182       0.00000000       0.00000000      -0.16257244
2
Properties=species:S:1:pos:R:3:forces:R:3 energy=-36.65698324588181 pbc="F F F"
Ru       0.00000000       0.00000000       0.00000000       0.00000000       0.00000000       0.09181912
Ru       0.00000000       0.00000000       5.17696970       0.00000000       0.00000000      -0.09181912
2
Properties=species:S:1:pos:R:3:forces:R:3 energy=-36.65320146789948 pbc="F F F"
Ru       0.00000000       0.00000000       0.00000000       0.00000000       0.00000000       0.04035309
Ru       0.00000000       0.00000000       5.23575758       0.00000000       0.00000000      -0.04035309
2
Properties=species:S:1:pos:R:3:forces:R:3 energy=-36.65181964990772 pbc="F F F"
Ru       0.00000000       0.00000000       0.00000000       0.00000000       0.00000000       0.01000396
Ru       0.00000000       0.00000000       5.29454545       0.00000000       0.00000000      -0.01000396
2
Properties=species:S:1:pos:R:3:forces:R:3 energy=-36.65169812638797 pbc="F F F"
Ru       0.00000000       0.00000000       0.00000000       0.00000000       0.00000000      -0.00373004
Ru       0.00000000       0.00000000       5.35333333       0.00000000       0.00000000       0.00373004
2
Properties=species:S:1:pos:R:3:forces:R:3 energy=-36.65206725824836 pbc="F F F"
Ru       0.00000000       0.00000000       0.00000000       0.00000000       0.00000000      -0.00725541
Ru       0.00000000       0.00000000       5.41212121       0.00000000       0.00000000       0.00725541
2
Properties=species:S:1:pos:R:3:forces:R:3 energy=-36.652283302494176 pbc="F F F"
Ru       0.00000000       0.00000000       0.00000000       0.00000000       0.00000000       0.00309360
Ru       0.00000000       0.00000000       5.47090909       0.00000000       0.00000000      -0.00309360
2
Properties=species:S:1:pos:R:3:forces:R:3 energy=-36.65128288121652 pbc="F F F"
Ru       0.00000000       0.00000000       0.00000000       0.00000000       0.00000000       0.03359766
Ru       0.00000000       0.00000000       5.52969697       0.00000000       0.00000000      -0.03359766
2
Properties=species:S:1:pos:R:3:forces:R:3 energy=-36.648311583226324 pbc="F F F"
Ru       0.00000000       0.00000000       0.00000000       0.00000000       0.00000000       0.06532017
Ru       0.00000000       0.00000000       5.58848485       0.00000000       0.00000000      -0.06532017
2
Properties=species:S:1:pos:R:3:forces:R:3 energy=-36.643976826835335 pbc="F F F"
Ru       0.00000000       0.00000000       0.00000000       0.00000000       0.00000000       0.07940236
Ru       0.00000000       0.00000000       5.64727273       0.00000000       0.00000000      -0.07940236
2
Properties=species:S:1:pos:R:3:forces:R:3 energy=-36.639061450200685 pbc="F F F"
Ru       0.00000000       0.00000000       0.00000000       0.00000000       0.00000000       0.08927558
Ru       0.00000000       0.00000000       5.70606061       0.00000000       0.00000000      -0.08927558
2
Properties=species:S:1:pos:R:3:forces:R:3 energy=-36.63323053845529 pbc="F F F"
Ru       0.00000000       0.00000000       0.00000000       0.00000000       0.00000000       0.10923535
Ru       0.00000000       0.00000000       5.76484848       0.00000000       0.00000000      -0.10923535
2
Properties=species:S:1:pos:R:3:forces:R:3 energy=-36.626610717087324 pbc="F F F"
Ru       0.00000000       0.00000000       0.00000000       0.00000000       0.00000000       0.10967105
Ru       0.00000000       0.00000000       5.82363636       0.00000000       0.00000000      -0.10967105
2
Properties=species:S:1:pos:R:3:forces:R:3 energy=-36.62117865897937 pbc="F F F"
Ru       0.00000000       0.00000000       0.00000000       0.00000000       0.00000000       0.07057565
Ru       0.00000000       0.00000000       5.88242424       0.00000000       0.00000000      -0.07057565
2
Properties=species:S:1:pos:R:3:forces:R:3 energy=-36.61844940399989 pbc="F F F"
Ru       0.00000000       0.00000000       0.00000000       0.00000000       0.00000000       0.02416157
Ru       0.00000000       0.00000000       5.94121212       0.00000000       0.00000000      -0.02416157
2
Properties=species:S:1:pos:R:3:forces:R:3 energy=-36.61777880921664 pbc="F F F"
Ru       0.00000000       0.00000000       0.00000000       0.00000000       0.00000000       0.00499112
Ru       0.00000000       0.00000000       6.00000000       0.00000000       0.00000000      -0.00499112
