2
Properties=species:S:1:pos:R:3:forces:R:3 energy=3604163.4864824214 pbc="F F F"
Sb       0.00000000       0.00000000       0.00000000       0.00000000       0.00000000 -1471588.25000000
Sb       0.00000000       0.00000000       0.18000000       0.00000000       0.00000000 1471588.25000000
2
Properties=species:S:1:pos:R:3:forces:R:3 energy=3463757.9864824214 pbc="F F F"
Sb       0.00000000       0.00000000       0.00000000       0.00000000       0.00000000 -3554777.50000000
Sb       0.00000000       0.00000000       0.23878788       0.00000000       0.00000000 3554777.50000000
2
Properties=species:S:1:pos:R:3:forces:R:3 energy=3157680.4864824214 pbc="F F F"
Sb       0.00000000       0.00000000       0.00000000       0.00000000       0.00000000 -7066540.50000000
Sb       0.00000000       0.00000000       0.29757576       0.00000000       0.00000000 7066540.50000000
2
Properties=species:S:1:pos:R:3:forces:R:3 energy=2619235.9864824214 pbc="F F F"
Sb       0.00000000       0.00000000       0.00000000       0.00000000       0.00000000 -11227568.00000000
Sb       0.00000000       0.00000000       0.35636364       0.00000000       0.00000000 11227568.00000000
2
Properties=species:S:1:pos:R:3:forces:R:3 energy=1865014.9864824214 pbc="F F F"
Sb       0.00000000       0.00000000       0.00000000       0.00000000       0.00000000 -13969593.00000000
Sb       0.00000000       0.00000000       0.41515152       0.00000000       0.00000000 13969593.00000000
2
Properties=species:S:1:pos:R:3:forces:R:3 energy=1053297.2364824247 pbc="F F F"
Sb       0.00000000       0.00000000       0.00000000       0.00000000       0.00000000 -12890856.00000000
Sb       0.00000000       0.00000000       0.47393939       0.00000000       0.00000000 12890856.00000000
2
Properties=species:S:1:pos:R:3:forces:R:3 energy=426514.2989824261 pbc="F F F"
Sb       0.00000000       0.00000000       0.00000000       0.00000000       0.00000000 -8024542.00000000
Sb       0.00000000       0.00000000       0.53272727       0.00000000       0.00000000 8024542.00000000
2
Properties=species:S:1:pos:R:3:forces:R:3 energy=112162.55679493089 pbc="F F F"
Sb       0.00000000       0.00000000       0.00000000       0.00000000       0.00000000 -3050385.75000000
Sb       0.00000000       0.00000000       0.59151515       0.00000000       0.00000000 3050385.75000000
2
Properties=species:S:1:pos:R:3:forces:R:3 energy=20221.29898243881 pbc="F F F"
Sb       0.00000000       0.00000000       0.00000000       0.00000000       0.00000000 -502800.34375000
Sb       0.00000000       0.00000000       0.65030303       0.00000000       0.00000000  502800.34375000
2
Properties=species:S:1:pos:R:3:forces:R:3 energy=6878.442048854562 pbc="F F F"
Sb       0.00000000       0.00000000       0.00000000       0.00000000       0.00000000  -52685.03125000
Sb       0.00000000       0.00000000       0.70909091       0.00000000       0.00000000   52685.03125000
2
Properties=species:S:1:pos:R:3:forces:R:3 energy=5579.38736137357 pbc="F F F"
Sb       0.00000000       0.00000000       0.00000000       0.00000000       0.00000000  -27468.64062500
Sb       0.00000000       0.00000000       0.76787879       0.00000000       0.00000000   27468.64062500
2
Properties=species:S:1:pos:R:3:forces:R:3 energy=4300.888826241077 pbc="F F F"
Sb       0.00000000       0.00000000       0.00000000       0.00000000       0.00000000  -16877.07812500
Sb       0.00000000       0.00000000       0.82666667       0.00000000       0.00000000   16877.07812500
2
Properties=species:S:1:pos:R:3:forces:R:3 energy=3245.3873614353415 pbc="F F F"
Sb       0.00000000       0.00000000       0.00000000       0.00000000       0.00000000  -19139.64062500
Sb       0.00000000       0.00000000       0.88545455       0.00000000       0.00000000   19139.64062500
2
Properties=species:S:1:pos:R:3:forces:R:3 energy=2181.991609531318 pbc="F F F"
Sb       0.00000000       0.00000000       0.00000000       0.00000000       0.00000000  -16001.13183594
Sb       0.00000000       0.00000000       0.94424242       0.00000000       0.00000000   16001.13183594
2
Properties=species:S:1:pos:R:3:forces:R:3 energy=1404.67032053851 pbc="F F F"
Sb       0.00000000       0.00000000       0.00000000       0.00000000       0.00000000  -10637.13964844
Sb       0.00000000       0.00000000       1.00303030       0.00000000       0.00000000   10637.13964844
2
Properties=species:S:1:pos:R:3:forces:R:3 energy=888.9500447530545 pbc="F F F"
Sb       0.00000000       0.00000000       0.00000000       0.00000000       0.00000000   -7341.73779297
Sb       0.00000000       0.00000000       1.06181818       0.00000000       0.00000000    7341.73779297
2
Properties=species:S:1:pos:R:3:forces:R:3 energy=531.4764120640996 pbc="F F F"
Sb       0.00000000       0.00000000       0.00000000       0.00000000       0.00000000   -4962.75683594
Sb       0.00000000       0.00000000       1.12060606       0.00000000       0.00000000    4962.75683594
2
Properties=species:S:1:pos:R:3:forces:R:3 energy=287.00161974518977 pbc="F F F"
Sb       0.00000000       0.00000000       0.00000000       0.00000000       0.00000000   -3330.45190430
Sb       0.00000000       0.00000000       1.17939394       0.00000000       0.00000000    3330.45190430
2
Properties=species:S:1:pos:R:3:forces:R:3 energy=136.59546150700038 pbc="F F F"
Sb       0.00000000       0.00000000       0.00000000       0.00000000       0.00000000   -1863.02575684
Sb       0.00000000       0.00000000       1.23818182       0.00000000       0.00000000    1863.02575684
2
Properties=species:S:1:pos:R:3:forces:R:3 energy=56.703337595488144 pbc="F F F"
Sb       0.00000000       0.00000000       0.00000000       0.00000000       0.00000000    -940.55798340
Sb       0.00000000       0.00000000       1.29696970       0.00000000       0.00000000     940.55798340
2
Properties=species:S:1:pos:R:3:forces:R:3 energy=17.45157172327549 pbc="F F F"
Sb       0.00000000       0.00000000       0.00000000       0.00000000       0.00000000    -473.99877930
Sb       0.00000000       0.00000000       1.35575758       0.00000000       0.00000000     473.99877930
2
Properties=species:S:1:pos:R:3:forces:R:3 energy=-4.560577670946915 pbc="F F F"
Sb       0.00000000       0.00000000       0.00000000       0.00000000       0.00000000    -288.38040161
Sb       0.00000000       0.00000000       1.41454545       0.00000000       0.00000000     288.38040161
2
Properties=species:S:1:pos:R:3:forces:R:3 energy=-17.53359389665133 pbc="F F F"
Sb       0.00000000       0.00000000       0.00000000       0.00000000       0.00000000    -164.01165771
Sb       0.00000000       0.00000000       1.47333333       0.00000000       0.00000000     164.01165771
2
Properties=species:S:1:pos:R:3:forces:R:3 energy=-25.001698582416832 pbc="F F F"
Sb       0.00000000       0.00000000       0.00000000       0.00000000       0.00000000     -96.90667725
Sb       0.00000000       0.00000000       1.53212121       0.00000000       0.00000000      96.90667725
2
Properties=species:S:1:pos:R:3:forces:R:3 energy=-29.526842391246326 pbc="F F F"
Sb       0.00000000       0.00000000       0.00000000       0.00000000       0.00000000     -61.66362381
Sb       0.00000000       0.00000000       1.59090909       0.00000000       0.00000000      61.66362381
2
Properties=species:S:1:pos:R:3:forces:R:3 energy=-32.739903757370946 pbc="F F F"
Sb       0.00000000       0.00000000       0.00000000       0.00000000       0.00000000     -50.40327072
Sb       0.00000000       0.00000000       1.64969697       0.00000000       0.00000000      50.40327072
2
Properties=species:S:1:pos:R:3:forces:R:3 energy=-35.57567611348295 pbc="F F F"
Sb       0.00000000       0.00000000       0.00000000       0.00000000       0.00000000     -46.03527069
Sb       0.00000000       0.00000000       1.70848485       0.00000000       0.00000000      46.03527069
2
Properties=species:S:1:pos:R:3:forces:R:3 energy=-38.11437488675742 pbc="F F F"
Sb       0.00000000       0.00000000       0.00000000       0.00000000       0.00000000     -39.99639130
Sb       0.00000000       0.00000000       1.76727273       0.00000000       0.00000000      39.99639130
2
Properties=species:S:1:pos:R:3:forces:R:3 energy=-40.26154051499253 pbc="F F F"
Sb       0.00000000       0.00000000       0.00000000       0.00000000       0.00000000     -33.12815857
Sb       0.00000000       0.00000000       1.82606061       0.00000000       0.00000000      33.12815857
2
Properties=species:S:1:pos:R:3:forces:R:3 energy=-42.03446498287951 pbc="F F F"
Sb       0.00000000       0.00000000       0.00000000       0.00000000       0.00000000     -27.45135880
Sb       0.00000000       0.00000000       1.88484848       0.00000000       0.00000000      27.45135880
2
Properties=species:S:1:pos:R:3:forces:R:3 energy=-43.51570210009078 pbc="F F F"
Sb       0.00000000       0.00000000       0.00000000       0.00000000       0.00000000     -23.10910034
Sb       0.00000000       0.00000000       1.94363636       0.00000000       0.00000000      23.10910034
2
Properties=species:S:1:pos:R:3:forces:R:3 energy=-44.765489744812164 pbc="F F F"
Sb       0.00000000       0.00000000       0.00000000       0.00000000       0.00000000     -19.49426270
Sb       0.00000000       0.00000000       2.00242424       0.00000000       0.00000000      19.49426270
2
Properties=species:S:1:pos:R:3:forces:R:3 energy=-45.81573013365751 pbc="F F F"
Sb       0.00000000       0.00000000       0.00000000       0.00000000       0.00000000     -16.29098320
Sb       0.00000000       0.00000000       2.06121212       0.00000000       0.00000000      16.29098320
2
Properties=species:S:1:pos:R:3:forces:R:3 energy=-46.68596975799287 pbc="F F F"
Sb       0.00000000       0.00000000       0.00000000       0.00000000       0.00000000     -13.34495163
Sb       0.00000000       0.00000000       2.12000000       0.00000000       0.00000000      13.34495163
2
Properties=species:S:1:pos:R:3:forces:R:3 energy=-47.387042294696165 pbc="F F F"
Sb       0.00000000       0.00000000       0.00000000       0.00000000       0.00000000     -10.52087021
Sb       0.00000000       0.00000000       2.17878788       0.00000000       0.00000000      10.52087021
2
Properties=species:S:1:pos:R:3:forces:R:3 energy=-47.925795050915376 pbc="F F F"
Sb       0.00000000       0.00000000       0.00000000       0.00000000       0.00000000      -7.84932947
Sb       0.00000000       0.00000000       2.23757576       0.00000000       0.00000000       7.84932947
2
Properties=species:S:1:pos:R:3:forces:R:3 energy=-48.31762027309651 pbc="F F F"
Sb       0.00000000       0.00000000       0.00000000       0.00000000       0.00000000      -5.56894064
Sb       0.00000000       0.00000000       2.29636364       0.00000000       0.00000000       5.56894064
2
Properties=species:S:1:pos:R:3:forces:R:3 energy=-48.59239080959323 pbc="F F F"
Sb       0.00000000       0.00000000       0.00000000       0.00000000       0.00000000      -3.88203835
Sb       0.00000000       0.00000000       2.35515152       0.00000000       0.00000000       3.88203835
2
Properties=species:S:1:pos:R:3:forces:R:3 energy=-48.78484322876599 pbc="F F F"
Sb       0.00000000       0.00000000       0.00000000       0.00000000       0.00000000      -2.73930597
Sb       0.00000000       0.00000000       2.41393939       0.00000000       0.00000000       2.73930597
2
Properties=species:S:1:pos:R:3:forces:R:3 energy=-48.92074193417428 pbc="F F F"
Sb       0.00000000       0.00000000       0.00000000       0.00000000       0.00000000      -1.91816401
Sb       0.00000000       0.00000000       2.47272727       0.00000000       0.00000000       1.91816401
2
Properties=species:S:1:pos:R:3:forces:R:3 energy=-49.01270208690992 pbc="F F F"
Sb       0.00000000       0.00000000       0.00000000       0.00000000       0.00000000      -1.21991491
Sb       0.00000000       0.00000000       2.53151515       0.00000000       0.00000000       1.21991491
2
Properties=species:S:1:pos:R:3:forces:R:3 energy=-49.06465660659163 pbc="F F F"
Sb       0.00000000       0.00000000       0.00000000       0.00000000       0.00000000      -0.54886633
Sb       0.00000000       0.00000000       2.59030303       0.00000000       0.00000000       0.54886633
2
Properties=species:S:1:pos:R:3:forces:R:3 energy=-49.07737988151609 pbc="F F F"
Sb       0.00000000       0.00000000       0.00000000       0.00000000       0.00000000       0.11371945
Sb       0.00000000       0.00000000       2.64909091       0.00000000       0.00000000      -0.11371945
2
Properties=species:S:1:pos:R:3:forces:R:3 energy=-49.05186374881144 pbc="F F F"
Sb       0.00000000       0.00000000       0.00000000       0.00000000       0.00000000       0.74627733
Sb       0.00000000       0.00000000       2.70787879       0.00000000       0.00000000      -0.74627733
2
Properties=species:S:1:pos:R:3:forces:R:3 energy=-48.9909768671571 pbc="F F F"
Sb       0.00000000       0.00000000       0.00000000       0.00000000       0.00000000       1.31056094
Sb       0.00000000       0.00000000       2.76666667       0.00000000       0.00000000      -1.31056094
2
Properties=species:S:1:pos:R:3:forces:R:3 energy=-48.89973566165985 pbc="F F F"
Sb       0.00000000       0.00000000       0.00000000       0.00000000       0.00000000       1.77582264
Sb       0.00000000       0.00000000       2.82545455       0.00000000       0.00000000      -1.77582264
2
Properties=species:S:1:pos:R:3:forces:R:3 energy=-48.784194185177014 pbc="F F F"
Sb       0.00000000       0.00000000       0.00000000       0.00000000       0.00000000       2.13944983
Sb       0.00000000       0.00000000       2.88424242       0.00000000       0.00000000      -2.13944983
2
Properties=species:S:1:pos:R:3:forces:R:3 energy=-48.6496817994558 pbc="F F F"
Sb       0.00000000       0.00000000       0.00000000       0.00000000       0.00000000       2.42682862
Sb       0.00000000       0.00000000       2.94303030       0.00000000       0.00000000      -2.42682862
2
Properties=species:S:1:pos:R:3:forces:R:3 energy=-48.49975055627457 pbc="F F F"
Sb       0.00000000       0.00000000       0.00000000       0.00000000       0.00000000       2.66785884
Sb       0.00000000       0.00000000       3.00181818       0.00000000       0.00000000      -2.66785884
2
Properties=species:S:1:pos:R:3:forces:R:3 energy=-48.33670951006975 pbc="F F F"
Sb       0.00000000       0.00000000       0.00000000       0.00000000       0.00000000       2.87239122
Sb       0.00000000       0.00000000       3.06060606       0.00000000       0.00000000      -2.87239122
2
Properties=species:S:1:pos:R:3:forces:R:3 energy=-48.16297945023624 pbc="F F F"
Sb       0.00000000       0.00000000       0.00000000       0.00000000       0.00000000       3.02821040
Sb       0.00000000       0.00000000       3.11939394       0.00000000       0.00000000      -3.02821040
2
Properties=species:S:1:pos:R:3:forces:R:3 energy=-47.98200099548156 pbc="F F F"
Sb       0.00000000       0.00000000       0.00000000       0.00000000       0.00000000       3.11597705
Sb       0.00000000       0.00000000       3.17818182       0.00000000       0.00000000      -3.11597705
2
Properties=species:S:1:pos:R:3:forces:R:3 energy=-47.798249212714886 pbc="F F F"
Sb       0.00000000       0.00000000       0.00000000       0.00000000       0.00000000       3.12060118
Sb       0.00000000       0.00000000       3.23696970       0.00000000       0.00000000      -3.12060118
2
Properties=species:S:1:pos:R:3:forces:R:3 energy=-47.61687586928068 pbc="F F F"
Sb       0.00000000       0.00000000       0.00000000       0.00000000       0.00000000       3.03450942
Sb       0.00000000       0.00000000       3.29575758       0.00000000       0.00000000      -3.03450942
2
Properties=species:S:1:pos:R:3:forces:R:3 energy=-47.44320522514855 pbc="F F F"
Sb       0.00000000       0.00000000       0.00000000       0.00000000       0.00000000       2.85992718
Sb       0.00000000       0.00000000       3.35454545       0.00000000       0.00000000      -2.85992718
2
Properties=species:S:1:pos:R:3:forces:R:3 energy=-47.28208159771969 pbc="F F F"
Sb       0.00000000       0.00000000       0.00000000       0.00000000       0.00000000       2.61117506
Sb       0.00000000       0.00000000       3.41333333       0.00000000       0.00000000      -2.61117506
2
Properties=species:S:1:pos:R:3:forces:R:3 energy=-47.13716308560116 pbc="F F F"
Sb       0.00000000       0.00000000       0.00000000       0.00000000       0.00000000       2.31314516
Sb       0.00000000       0.00000000       3.47212121       0.00000000       0.00000000      -2.31314516
2
Properties=species:S:1:pos:R:3:forces:R:3 energy=-47.01049312696435 pbc="F F F"
Sb       0.00000000       0.00000000       0.00000000       0.00000000       0.00000000       1.99554670
Sb       0.00000000       0.00000000       3.53090909       0.00000000       0.00000000      -1.99554670
2
Properties=species:S:1:pos:R:3:forces:R:3 energy=-46.90237420271838 pbc="F F F"
Sb       0.00000000       0.00000000       0.00000000       0.00000000       0.00000000       1.68607783
Sb       0.00000000       0.00000000       3.58969697       0.00000000       0.00000000      -1.68607783
2
Properties=species:S:1:pos:R:3:forces:R:3 energy=-46.811676759519806 pbc="F F F"
Sb       0.00000000       0.00000000       0.00000000       0.00000000       0.00000000       1.40565825
Sb       0.00000000       0.00000000       3.64848485       0.00000000       0.00000000      -1.40565825
2
Properties=species:S:1:pos:R:3:forces:R:3 energy=-46.73628683988659 pbc="F F F"
Sb       0.00000000       0.00000000       0.00000000       0.00000000       0.00000000       1.16656637
Sb       0.00000000       0.00000000       3.70727273       0.00000000       0.00000000      -1.16656637
2
Properties=species:S:1:pos:R:3:forces:R:3 energy=-46.673620323474616 pbc="F F F"
Sb       0.00000000       0.00000000       0.00000000       0.00000000       0.00000000       0.97298628
Sb       0.00000000       0.00000000       3.76606061       0.00000000       0.00000000      -0.97298628
2
Properties=species:S:1:pos:R:3:forces:R:3 energy=-46.621034988034296 pbc="F F F"
Sb       0.00000000       0.00000000       0.00000000       0.00000000       0.00000000       0.82283515
Sb       0.00000000       0.00000000       3.82484848       0.00000000       0.00000000      -0.82283515
2
Properties=species:S:1:pos:R:3:forces:R:3 energy=-46.57613980320801 pbc="F F F"
Sb       0.00000000       0.00000000       0.00000000       0.00000000       0.00000000       0.71002060
Sb       0.00000000       0.00000000       3.88363636       0.00000000       0.00000000      -0.71002060
2
Properties=species:S:1:pos:R:3:forces:R:3 energy=-46.53697437098123 pbc="F F F"
Sb       0.00000000       0.00000000       0.00000000       0.00000000       0.00000000       0.62660754
Sb       0.00000000       0.00000000       3.94242424       0.00000000       0.00000000      -0.62660754
2
Properties=species:S:1:pos:R:3:forces:R:3 energy=-46.502051114643635 pbc="F F F"
Sb       0.00000000       0.00000000       0.00000000       0.00000000       0.00000000       0.56445146
Sb       0.00000000       0.00000000       4.00121212       0.00000000       0.00000000      -0.56445146
2
Properties=species:S:1:pos:R:3:forces:R:3 energy=-46.47033627499491 pbc="F F F"
Sb       0.00000000       0.00000000       0.00000000       0.00000000       0.00000000       0.51623988
Sb       0.00000000       0.00000000       4.06000000       0.00000000       0.00000000      -0.51623988
2
Properties=species:S:1:pos:R:3:forces:R:3 energy=-46.44120035412632 pbc="F F F"
Sb       0.00000000       0.00000000       0.00000000       0.00000000       0.00000000       0.47591957
Sb       0.00000000       0.00000000       4.11878788       0.00000000       0.00000000      -0.47591957
2
Properties=species:S:1:pos:R:3:forces:R:3 energy=-46.414322827976584 pbc="F F F"
Sb       0.00000000       0.00000000       0.00000000       0.00000000       0.00000000       0.43870357
Sb       0.00000000       0.00000000       4.17757576       0.00000000       0.00000000      -0.43870357
2
Properties=species:S:1:pos:R:3:forces:R:3 energy=-46.38963109929627 pbc="F F F"
Sb       0.00000000       0.00000000       0.00000000       0.00000000       0.00000000       0.40094513
Sb       0.00000000       0.00000000       4.23636364       0.00000000       0.00000000      -0.40094513
2
Properties=species:S:1:pos:R:3:forces:R:3 energy=-46.36724331837053 pbc="F F F"
Sb       0.00000000       0.00000000       0.00000000       0.00000000       0.00000000       0.36001810
Sb       0.00000000       0.00000000       4.29515152       0.00000000       0.00000000      -0.36001810
2
Properties=species:S:1:pos:R:3:forces:R:3 energy=-46.34739590456299 pbc="F F F"
Sb       0.00000000       0.00000000       0.00000000       0.00000000       0.00000000       0.31435794
Sb       0.00000000       0.00000000       4.35393939       0.00000000       0.00000000      -0.31435794
2
Properties=species:S:1:pos:R:3:forces:R:3 energy=-46.33038251036754 pbc="F F F"
Sb       0.00000000       0.00000000       0.00000000       0.00000000       0.00000000       0.26358438
Sb       0.00000000       0.00000000       4.41272727       0.00000000       0.00000000      -0.26358438
2
Properties=species:S:1:pos:R:3:forces:R:3 energy=-46.316485412294476 pbc="F F F"
Sb       0.00000000       0.00000000       0.00000000       0.00000000       0.00000000       0.20863695
Sb       0.00000000       0.00000000       4.47151515       0.00000000       0.00000000      -0.20863695
2
Properties=species:S:1:pos:R:3:forces:R:3 energy=-46.30589150675114 pbc="F F F"
Sb       0.00000000       0.00000000       0.00000000       0.00000000       0.00000000       0.15171844
Sb       0.00000000       0.00000000       4.53030303       0.00000000       0.00000000      -0.15171844
2
Properties=species:S:1:pos:R:3:forces:R:3 energy=-46.29862373656605 pbc="F F F"
Sb       0.00000000       0.00000000       0.00000000       0.00000000       0.00000000       0.09597140
Sb       0.00000000       0.00000000       4.58909091       0.00000000       0.00000000      -0.09597140
2
Properties=species:S:1:pos:R:3:forces:R:3 energy=-46.29451434930224 pbc="F F F"
Sb       0.00000000       0.00000000       0.00000000       0.00000000       0.00000000       0.04490518
Sb       0.00000000       0.00000000       4.64787879       0.00000000       0.00000000      -0.04490518
2
Properties=species:S:1:pos:R:3:forces:R:3 energy=-46.29318964797162 pbc="F F F"
Sb       0.00000000       0.00000000       0.00000000       0.00000000       0.00000000       0.00168593
Sb       0.00000000       0.00000000       4.70666667       0.00000000       0.00000000      -0.00168593
2
Properties=species:S:1:pos:R:3:forces:R:3 energy=-46.29411958764316 pbc="F F F"
Sb       0.00000000       0.00000000       0.00000000       0.00000000       0.00000000      -0.03147973
Sb       0.00000000       0.00000000       4.76545455       0.00000000       0.00000000       0.03147973
2
Properties=species:S:1:pos:R:3:forces:R:3 energy=-46.29667881297498 pbc="F F F"
Sb       0.00000000       0.00000000       0.00000000       0.00000000       0.00000000      -0.05371088
Sb       0.00000000       0.00000000       4.82424242       0.00000000       0.00000000       0.05371088
2
Properties=species:S:1:pos:R:3:forces:R:3 energy=-46.30022676368911 pbc="F F F"
Sb       0.00000000       0.00000000       0.00000000       0.00000000       0.00000000      -0.06542058
Sb       0.00000000       0.00000000       4.88303030       0.00000000       0.00000000       0.06542058
2
Properties=species:S:1:pos:R:3:forces:R:3 energy=-46.304191613750454 pbc="F F F"
Sb       0.00000000       0.00000000       0.00000000       0.00000000       0.00000000      -0.06800471
Sb       0.00000000       0.00000000       4.94181818       0.00000000       0.00000000       0.06800471
2
Properties=species:S:1:pos:R:3:forces:R:3 energy=-46.30808168061254 pbc="F F F"
Sb       0.00000000       0.00000000       0.00000000       0.00000000       0.00000000      -0.06334402
Sb       0.00000000       0.00000000       5.00060606       0.00000000       0.00000000       0.06334402
2
Properties=species:S:1:pos:R:3:forces:R:3 energy=-46.31153504637628 pbc="F F F"
Sb       0.00000000       0.00000000       0.00000000       0.00000000       0.00000000      -0.05339790
Sb       0.00000000       0.00000000       5.05939394       0.00000000       0.00000000       0.05339790
2
Properties=species:S:1:pos:R:3:forces:R:3 energy=-46.314292832734345 pbc="F F F"
Sb       0.00000000       0.00000000       0.00000000       0.00000000       0.00000000      -0.04000593
Sb       0.00000000       0.00000000       5.11818182       0.00000000       0.00000000       0.04000593
2
Properties=species:S:1:pos:R:3:forces:R:3 energy=-46.31620302833975 pbc="F F F"
Sb       0.00000000       0.00000000       0.00000000       0.00000000       0.00000000      -0.02491437
Sb       0.00000000       0.00000000       5.17696970       0.00000000       0.00000000       0.02491437
2
Properties=species:S:1:pos:R:3:forces:R:3 energy=-46.31722428608006 pbc="F F F"
Sb       0.00000000       0.00000000       0.00000000       0.00000000       0.00000000      -0.00992591
Sb       0.00000000       0.00000000       5.23575758       0.00000000       0.00000000       0.00992591
2
Properties=species:S:1:pos:R:3:forces:R:3 energy=-46.317410644489485 pbc="F F F"
Sb       0.00000000       0.00000000       0.00000000       0.00000000       0.00000000       0.00307004
Sb       0.00000000       0.00000000       5.29454545       0.00000000       0.00000000      -0.00307004
2
Properties=species:S:1:pos:R:3:forces:R:3 energy=-46.316934434147385 pbc="F F F"
Sb       0.00000000       0.00000000       0.00000000       0.00000000       0.00000000       0.01243170
Sb       0.00000000       0.00000000       5.35333333       0.00000000       0.00000000      -0.01243170
2
Properties=species:S:1:pos:R:3:forces:R:3 energy=-46.316029041380254 pbc="F F F"
Sb       0.00000000       0.00000000       0.00000000       0.00000000       0.00000000       0.01776675
Sb       0.00000000       0.00000000       5.41212121       0.00000000       0.00000000      -0.01776675
2
Properties=species:S:1:pos:R:3:forces:R:3 energy=-46.31488971662928 pbc="F F F"
Sb       0.00000000       0.00000000       0.00000000       0.00000000       0.00000000       0.02095079
Sb       0.00000000       0.00000000       5.47090909       0.00000000       0.00000000      -0.02095079
2
Properties=species:S:1:pos:R:3:forces:R:3 energy=-46.313551484339 pbc="F F F"
Sb       0.00000000       0.00000000       0.00000000       0.00000000       0.00000000       0.02473444
Sb       0.00000000       0.00000000       5.52969697       0.00000000       0.00000000      -0.02473444
2
Properties=species:S:1:pos:R:3:forces:R:3 energy=-46.311957824139114 pbc="F F F"
Sb       0.00000000       0.00000000       0.00000000       0.00000000       0.00000000       0.02955722
Sb       0.00000000       0.00000000       5.58848485       0.00000000       0.00000000      -0.02955722
2
Properties=species:S:1:pos:R:3:forces:R:3 energy=-46.31009796272417 pbc="F F F"
Sb       0.00000000       0.00000000       0.00000000       0.00000000       0.00000000       0.03336571
Sb       0.00000000       0.00000000       5.64727273       0.00000000       0.00000000      -0.03336571
2
Properties=species:S:1:pos:R:3:forces:R:3 energy=-46.30808318363797 pbc="F F F"
Sb       0.00000000       0.00000000       0.00000000       0.00000000       0.00000000       0.03484997
Sb       0.00000000       0.00000000       5.70606061       0.00000000       0.00000000      -0.03484997
2
Properties=species:S:1:pos:R:3:forces:R:3 energy=-46.30602855819509 pbc="F F F"
Sb       0.00000000       0.00000000       0.00000000       0.00000000       0.00000000       0.03464538
Sb       0.00000000       0.00000000       5.76484848       0.00000000       0.00000000      -0.03464538
2
Properties=species:S:1:pos:R:3:forces:R:3 energy=-46.30408345513944 pbc="F F F"
Sb       0.00000000       0.00000000       0.00000000       0.00000000       0.00000000       0.03055893
Sb       0.00000000       0.00000000       5.82363636       0.00000000       0.00000000      -0.03055893
2
Properties=species:S:1:pos:R:3:forces:R:3 energy=-46.30257267731554 pbc="F F F"
Sb       0.00000000       0.00000000       0.00000000       0.00000000       0.00000000       0.02012287
Sb       0.00000000       0.00000000       5.88242424       0.00000000       0.00000000      -0.02012287
2
Properties=species:S:1:pos:R:3:forces:R:3 energy=-46.301737066610144 pbc="F F F"
Sb       0.00000000       0.00000000       0.00000000       0.00000000       0.00000000       0.00871065
Sb       0.00000000       0.00000000       5.94121212       0.00000000       0.00000000      -0.00871065
2
Properties=species:S:1:pos:R:3:forces:R:3 energy=-46.301413054730794 pbc="F F F"
Sb       0.00000000       0.00000000       0.00000000       0.00000000       0.00000000       0.00391572
Sb       0.00000000       0.00000000       6.00000000       0.00000000       0.00000000      -0.00391572
