2
Properties=species:S:1:pos:R:3:forces:R:3 energy=3687647.2364824214 pbc="F F F"
Sb       0.00000000       0.00000000       0.00000000       0.00000000       0.00000000 -1217106.62500000
Sb       0.00000000       0.00000000       0.10000000       0.00000000       0.00000000 1217106.62500000
2
Properties=species:S:1:pos:R:3:forces:R:3 energy=3630033.7364824214 pbc="F F F"
Sb       0.00000000       0.00000000       0.00000000       0.00000000       0.00000000 -1093686.75000000
Sb       0.00000000       0.00000000       0.15959596       0.00000000       0.00000000 1093686.75000000
2
Properties=species:S:1:pos:R:3:forces:R:3 energy=3524693.9864824214 pbc="F F F"
Sb       0.00000000       0.00000000       0.00000000       0.00000000       0.00000000 -2693604.25000000
Sb       0.00000000       0.00000000       0.21919192       0.00000000       0.00000000 2693604.25000000
2
Properties=species:S:1:pos:R:3:forces:R:3 energy=3278517.4864824214 pbc="F F F"
Sb       0.00000000       0.00000000       0.00000000       0.00000000       0.00000000 -5811982.00000000
Sb       0.00000000       0.00000000       0.27878788       0.00000000       0.00000000 5811982.00000000
2
Properties=species:S:1:pos:R:3:forces:R:3 energy=2810033.4864824214 pbc="F F F"
Sb       0.00000000       0.00000000       0.00000000       0.00000000       0.00000000 -9985845.00000000
Sb       0.00000000       0.00000000       0.33838384       0.00000000       0.00000000 9985845.00000000
2
Properties=species:S:1:pos:R:3:forces:R:3 energy=2101096.4864824214 pbc="F F F"
Sb       0.00000000       0.00000000       0.00000000       0.00000000       0.00000000 -13474704.00000000
Sb       0.00000000       0.00000000       0.39797980       0.00000000       0.00000000 13474704.00000000
2
Properties=species:S:1:pos:R:3:forces:R:3 energy=1270885.111482423 pbc="F F F"
Sb       0.00000000       0.00000000       0.00000000       0.00000000       0.00000000 -13647596.00000000
Sb       0.00000000       0.00000000       0.45757576       0.00000000       0.00000000 13647596.00000000
2
Properties=species:S:1:pos:R:3:forces:R:3 energy=563035.6114824245 pbc="F F F"
Sb       0.00000000       0.00000000       0.00000000       0.00000000       0.00000000 -9518405.00000000
Sb       0.00000000       0.00000000       0.51717172       0.00000000       0.00000000 9518405.00000000
2
Properties=species:S:1:pos:R:3:forces:R:3 energy=164664.58023242932 pbc="F F F"
Sb       0.00000000       0.00000000       0.00000000       0.00000000       0.00000000 -4064421.50000000
Sb       0.00000000       0.00000000       0.57676768       0.00000000       0.00000000 4064421.50000000
2
Properties=species:S:1:pos:R:3:forces:R:3 energy=29648.71109181064 pbc="F F F"
Sb       0.00000000       0.00000000       0.00000000       0.00000000       0.00000000 -920962.56250000
Sb       0.00000000       0.00000000       0.63636364       0.00000000       0.00000000  920962.56250000
2
Properties=species:S:1:pos:R:3:forces:R:3 energy=7938.262361352979 pbc="F F F"
Sb       0.00000000       0.00000000       0.00000000       0.00000000       0.00000000 -109499.39062500
Sb       0.00000000       0.00000000       0.69595960       0.00000000       0.00000000  109499.39062500
2
Properties=species:S:1:pos:R:3:forces:R:3 energy=5928.273103556317 pbc="F F F"
Sb       0.00000000       0.00000000       0.00000000       0.00000000       0.00000000  -29348.46679688
Sb       0.00000000       0.00000000       0.75555556       0.00000000       0.00000000   29348.46679688
2
Properties=species:S:1:pos:R:3:forces:R:3 energy=4500.147127017576 pbc="F F F"
Sb       0.00000000       0.00000000       0.00000000       0.00000000       0.00000000  -17914.10546875
Sb       0.00000000       0.00000000       0.81515152       0.00000000       0.00000000   17914.10546875
2
Properties=species:S:1:pos:R:3:forces:R:3 energy=3449.382722753963 pbc="F F F"
Sb       0.00000000       0.00000000       0.00000000       0.00000000       0.00000000  -18923.10937500
Sb       0.00000000       0.00000000       0.87474747       0.00000000       0.00000000   18923.10937500
2
Properties=species:S:1:pos:R:3:forces:R:3 energy=2344.9081134280646 pbc="F F F"
Sb       0.00000000       0.00000000       0.00000000       0.00000000       0.00000000  -16901.95898438
Sb       0.00000000       0.00000000       0.93434343       0.00000000       0.00000000   16901.95898438
2
Properties=species:S:1:pos:R:3:forces:R:3 energy=1504.6390705258386 pbc="F F F"
Sb       0.00000000       0.00000000       0.00000000       0.00000000       0.00000000  -11365.09863281
Sb       0.00000000       0.00000000       0.99393939       0.00000000       0.00000000   11365.09863281
2
Properties=species:S:1:pos:R:3:forces:R:3 energy=951.2242146606743 pbc="F F F"
Sb       0.00000000       0.00000000       0.00000000       0.00000000       0.00000000   -7687.84814453
Sb       0.00000000       0.00000000       1.05353535       0.00000000       0.00000000    7687.84814453
2
Properties=species:S:1:pos:R:3:forces:R:3 energy=569.5074179076355 pbc="F F F"
Sb       0.00000000       0.00000000       0.00000000       0.00000000       0.00000000   -5214.56347656
Sb       0.00000000       0.00000000       1.11313131       0.00000000       0.00000000    5214.56347656
2
Properties=species:S:1:pos:R:3:forces:R:3 energy=309.8411888179797 pbc="F F F"
Sb       0.00000000       0.00000000       0.00000000       0.00000000       0.00000000   -3521.69970703
Sb       0.00000000       0.00000000       1.17272727       0.00000000       0.00000000    3521.69970703
2
Properties=species:S:1:pos:R:3:forces:R:3 energy=147.86880743050736 pbc="F F F"
Sb       0.00000000       0.00000000       0.00000000       0.00000000       0.00000000   -1986.59033203
Sb       0.00000000       0.00000000       1.23232323       0.00000000       0.00000000    1986.59033203
2
Properties=species:S:1:pos:R:3:forces:R:3 energy=61.60755815120026 pbc="F F F"
Sb       0.00000000       0.00000000       0.00000000       0.00000000       0.00000000   -1001.94641113
Sb       0.00000000       0.00000000       1.29191919       0.00000000       0.00000000    1001.94641113
2
Properties=species:S:1:pos:R:3:forces:R:3 energy=19.501792185850952 pbc="F F F"
Sb       0.00000000       0.00000000       0.00000000       0.00000000       0.00000000    -492.81155396
Sb       0.00000000       0.00000000       1.35151515       0.00000000       0.00000000     492.81155396
2
Properties=species:S:1:pos:R:3:forces:R:3 energy=-3.5546000672581695 pbc="F F F"
Sb       0.00000000       0.00000000       0.00000000       0.00000000       0.00000000    -297.52801514
Sb       0.00000000       0.00000000       1.41111111       0.00000000       0.00000000     297.52801514
2
Properties=species:S:1:pos:R:3:forces:R:3 energy=-17.097469118774253 pbc="F F F"
Sb       0.00000000       0.00000000       0.00000000       0.00000000       0.00000000    -168.13677979
Sb       0.00000000       0.00000000       1.47070707       0.00000000       0.00000000     168.13677979
2
Properties=species:S:1:pos:R:3:forces:R:3 energy=-24.824078668925644 pbc="F F F"
Sb       0.00000000       0.00000000       0.00000000       0.00000000       0.00000000     -98.43981934
Sb       0.00000000       0.00000000       1.53030303       0.00000000       0.00000000      98.43981934
2
Properties=species:S:1:pos:R:3:forces:R:3 energy=-29.46437292307965 pbc="F F F"
Sb       0.00000000       0.00000000       0.00000000       0.00000000       0.00000000     -62.03548431
Sb       0.00000000       0.00000000       1.58989899       0.00000000       0.00000000      62.03548431
2
Properties=species:S:1:pos:R:3:forces:R:3 energy=-32.729718522007374 pbc="F F F"
Sb       0.00000000       0.00000000       0.00000000       0.00000000       0.00000000     -50.42043304
Sb       0.00000000       0.00000000       1.64949495       0.00000000       0.00000000      50.42043304
2
Properties=species:S:1:pos:R:3:forces:R:3 energy=-35.603546277450405 pbc="F F F"
Sb       0.00000000       0.00000000       0.00000000       0.00000000       0.00000000     -45.98435211
Sb       0.00000000       0.00000000       1.70909091       0.00000000       0.00000000      45.98435211
2
Properties=species:S:1:pos:R:3:forces:R:3 energy=-38.17083618613989 pbc="F F F"
Sb       0.00000000       0.00000000       0.00000000       0.00000000       0.00000000     -39.83047485
Sb       0.00000000       0.00000000       1.76868687       0.00000000       0.00000000      39.83047485
2
Properties=species:S:1:pos:R:3:forces:R:3 energy=-40.33488944115606 pbc="F F F"
Sb       0.00000000       0.00000000       0.00000000       0.00000000       0.00000000     -32.88507462
Sb       0.00000000       0.00000000       1.82828283       0.00000000       0.00000000      32.88507462
2
Properties=species:S:1:pos:R:3:forces:R:3 energy=-42.1172705118863 pbc="F F F"
Sb       0.00000000       0.00000000       0.00000000       0.00000000       0.00000000     -27.20016289
Sb       0.00000000       0.00000000       1.88787879       0.00000000       0.00000000      27.20016289
2
Properties=species:S:1:pos:R:3:forces:R:3 energy=-43.60391301710909 pbc="F F F"
Sb       0.00000000       0.00000000       0.00000000       0.00000000       0.00000000     -22.85621071
Sb       0.00000000       0.00000000       1.94747475       0.00000000       0.00000000      22.85621071
2
Properties=species:S:1:pos:R:3:forces:R:3 energy=-44.85545533704147 pbc="F F F"
Sb       0.00000000       0.00000000       0.00000000       0.00000000       0.00000000     -19.22826958
Sb       0.00000000       0.00000000       2.00707071       0.00000000       0.00000000      19.22826958
2
Properties=species:S:1:pos:R:3:forces:R:3 energy=-45.90381883464351 pbc="F F F"
Sb       0.00000000       0.00000000       0.00000000       0.00000000       0.00000000     -16.00923347
Sb       0.00000000       0.00000000       2.06666667       0.00000000       0.00000000      16.00923347
2
Properties=species:S:1:pos:R:3:forces:R:3 energy=-46.76859189642692 pbc="F F F"
Sb       0.00000000       0.00000000       0.00000000       0.00000000       0.00000000     -13.03979874
Sb       0.00000000       0.00000000       2.12626263       0.00000000       0.00000000      13.03979874
2
Properties=species:S:1:pos:R:3:forces:R:3 energy=-47.4602496240623 pbc="F F F"
Sb       0.00000000       0.00000000       0.00000000       0.00000000       0.00000000     -10.18818188
Sb       0.00000000       0.00000000       2.18585859       0.00000000       0.00000000      10.18818188
2
Properties=species:S:1:pos:R:3:forces:R:3 energy=-47.98631455620796 pbc="F F F"
Sb       0.00000000       0.00000000       0.00000000       0.00000000       0.00000000      -7.51476049
Sb       0.00000000       0.00000000       2.24545455       0.00000000       0.00000000       7.51476049
2
Properties=species:S:1:pos:R:3:forces:R:3 energy=-48.36473859483948 pbc="F F F"
Sb       0.00000000       0.00000000       0.00000000       0.00000000       0.00000000      -5.28036690
Sb       0.00000000       0.00000000       2.30505051       0.00000000       0.00000000       5.28036690
2
Properties=species:S:1:pos:R:3:forces:R:3 energy=-48.6282136131599 pbc="F F F"
Sb       0.00000000       0.00000000       0.00000000       0.00000000       0.00000000      -3.66548848
Sb       0.00000000       0.00000000       2.36464646       0.00000000       0.00000000       3.66548848
2
Properties=species:S:1:pos:R:3:forces:R:3 energy=-48.81223150067561 pbc="F F F"
Sb       0.00000000       0.00000000       0.00000000       0.00000000       0.00000000      -2.57896781
Sb       0.00000000       0.00000000       2.42424242       0.00000000       0.00000000       2.57896781
2
Properties=species:S:1:pos:R:3:forces:R:3 energy=-48.94129018145393 pbc="F F F"
Sb       0.00000000       0.00000000       0.00000000       0.00000000       0.00000000      -1.78108728
Sb       0.00000000       0.00000000       2.48383838       0.00000000       0.00000000       1.78108728
2
Properties=species:S:1:pos:R:3:forces:R:3 energy=-49.02642937195854 pbc="F F F"
Sb       0.00000000       0.00000000       0.00000000       0.00000000       0.00000000      -1.08309960
Sb       0.00000000       0.00000000       2.54343434       0.00000000       0.00000000       1.08309960
2
Properties=species:S:1:pos:R:3:forces:R:3 energy=-49.07072366274867 pbc="F F F"
Sb       0.00000000       0.00000000       0.00000000       0.00000000       0.00000000      -0.40439641
Sb       0.00000000       0.00000000       2.60303030       0.00000000       0.00000000       0.40439641
2
Properties=species:S:1:pos:R:3:forces:R:3 energy=-49.074825386063665 pbc="F F F"
Sb       0.00000000       0.00000000       0.00000000       0.00000000       0.00000000       0.26330099
Sb       0.00000000       0.00000000       2.66262626       0.00000000       0.00000000      -0.26330099
2
Properties=species:S:1:pos:R:3:forces:R:3 energy=-49.04011164603249 pbc="F F F"
Sb       0.00000000       0.00000000       0.00000000       0.00000000       0.00000000       0.89175189
Sb       0.00000000       0.00000000       2.72222222       0.00000000       0.00000000      -0.89175189
2
Properties=species:S:1:pos:R:3:forces:R:3 energy=-48.97012635026791 pbc="F F F"
Sb       0.00000000       0.00000000       0.00000000       0.00000000       0.00000000       1.44063640
Sb       0.00000000       0.00000000       2.78181818       0.00000000       0.00000000      -1.44063640
2
Properties=species:S:1:pos:R:3:forces:R:3 energy=-48.8705191366963 pbc="F F F"
Sb       0.00000000       0.00000000       0.00000000       0.00000000       0.00000000       1.88391292
Sb       0.00000000       0.00000000       2.84141414       0.00000000       0.00000000      -1.88391292
2
Properties=species:S:1:pos:R:3:forces:R:3 energy=-48.74757299703175 pbc="F F F"
Sb       0.00000000       0.00000000       0.00000000       0.00000000       0.00000000       2.22770214
Sb       0.00000000       0.00000000       2.90101010       0.00000000       0.00000000      -2.22770214
2
Properties=species:S:1:pos:R:3:forces:R:3 energy=-48.60635796646728 pbc="F F F"
Sb       0.00000000       0.00000000       0.00000000       0.00000000       0.00000000       2.50278306
Sb       0.00000000       0.00000000       2.96060606       0.00000000       0.00000000      -2.50278306
2
Properties=species:S:1:pos:R:3:forces:R:3 energy=-48.45007529985612 pbc="F F F"
Sb       0.00000000       0.00000000       0.00000000       0.00000000       0.00000000       2.73599195
Sb       0.00000000       0.00000000       3.02020202       0.00000000       0.00000000      -2.73599195
2
Properties=species:S:1:pos:R:3:forces:R:3 energy=-48.28102298609764 pbc="F F F"
Sb       0.00000000       0.00000000       0.00000000       0.00000000       0.00000000       2.92956758
Sb       0.00000000       0.00000000       3.07979798       0.00000000       0.00000000      -2.92956758
2
Properties=species:S:1:pos:R:3:forces:R:3 energy=-48.10201521308188 pbc="F F F"
Sb       0.00000000       0.00000000       0.00000000       0.00000000       0.00000000       3.06660247
Sb       0.00000000       0.00000000       3.13939394       0.00000000       0.00000000      -3.06660247
2
Properties=species:S:1:pos:R:3:forces:R:3 energy=-47.917023423731656 pbc="F F F"
Sb       0.00000000       0.00000000       0.00000000       0.00000000       0.00000000       3.12768626
Sb       0.00000000       0.00000000       3.19898990       0.00000000       0.00000000      -3.12768626
2
Properties=species:S:1:pos:R:3:forces:R:3 energy=-47.73099932570938 pbc="F F F"
Sb       0.00000000       0.00000000       0.00000000       0.00000000       0.00000000       3.09961653
Sb       0.00000000       0.00000000       3.25858586       0.00000000       0.00000000      -3.09961653
2
Properties=species:S:1:pos:R:3:forces:R:3 energy=-47.54943979482058 pbc="F F F"
Sb       0.00000000       0.00000000       0.00000000       0.00000000       0.00000000       2.97785044
Sb       0.00000000       0.00000000       3.31818182       0.00000000       0.00000000      -2.97785044
2
Properties=species:S:1:pos:R:3:forces:R:3 energy=-47.37779548353559 pbc="F F F"
Sb       0.00000000       0.00000000       0.00000000       0.00000000       0.00000000       2.76929212
Sb       0.00000000       0.00000000       3.37777778       0.00000000       0.00000000      -2.76929212
2
Properties=species:S:1:pos:R:3:forces:R:3 energy=-47.22070701449763 pbc="F F F"
Sb       0.00000000       0.00000000       0.00000000       0.00000000       0.00000000       2.49360132
Sb       0.00000000       0.00000000       3.43737374       0.00000000       0.00000000      -2.49360132
2
Properties=species:S:1:pos:R:3:forces:R:3 energy=-47.08134224354243 pbc="F F F"
Sb       0.00000000       0.00000000       0.00000000       0.00000000       0.00000000       2.17957497
Sb       0.00000000       0.00000000       3.49696970       0.00000000       0.00000000      -2.17957497
2
Properties=species:S:1:pos:R:3:forces:R:3 energy=-46.96106083813219 pbc="F F F"
Sb       0.00000000       0.00000000       0.00000000       0.00000000       0.00000000       1.85805869
Sb       0.00000000       0.00000000       3.55656566       0.00000000       0.00000000      -1.85805869
2
Properties=species:S:1:pos:R:3:forces:R:3 energy=-46.85949543043492 pbc="F F F"
Sb       0.00000000       0.00000000       0.00000000       0.00000000       0.00000000       1.55530822
Sb       0.00000000       0.00000000       3.61616162       0.00000000       0.00000000      -1.55530822
2
Properties=species:S:1:pos:R:3:forces:R:3 energy=-46.77494830212998 pbc="F F F"
Sb       0.00000000       0.00000000       0.00000000       0.00000000       0.00000000       1.28917468
Sb       0.00000000       0.00000000       3.67575758       0.00000000       0.00000000      -1.28917468
2
Properties=species:S:1:pos:R:3:forces:R:3 energy=-46.70493135683605 pbc="F F F"
Sb       0.00000000       0.00000000       0.00000000       0.00000000       0.00000000       1.06843114
Sb       0.00000000       0.00000000       3.73535354       0.00000000       0.00000000      -1.06843114
2
Properties=species:S:1:pos:R:3:forces:R:3 energy=-46.646676995729216 pbc="F F F"
Sb       0.00000000       0.00000000       0.00000000       0.00000000       0.00000000       0.89408606
Sb       0.00000000       0.00000000       3.79494949       0.00000000       0.00000000      -0.89408606
2
Properties=species:S:1:pos:R:3:forces:R:3 energy=-46.59752745900247 pbc="F F F"
Sb       0.00000000       0.00000000       0.00000000       0.00000000       0.00000000       0.76165503
Sb       0.00000000       0.00000000       3.85454545       0.00000000       0.00000000      -0.76165503
2
Properties=species:S:1:pos:R:3:forces:R:3 energy=-46.555209769172826 pbc="F F F"
Sb       0.00000000       0.00000000       0.00000000       0.00000000       0.00000000       0.66359389
Sb       0.00000000       0.00000000       3.91414141       0.00000000       0.00000000      -0.66359389
2
Properties=species:S:1:pos:R:3:forces:R:3 energy=-46.5179198278594 pbc="F F F"
Sb       0.00000000       0.00000000       0.00000000       0.00000000       0.00000000       0.59134364
Sb       0.00000000       0.00000000       3.97373737       0.00000000       0.00000000      -0.59134364
2
Properties=species:S:1:pos:R:3:forces:R:3 energy=-46.484375972016736 pbc="F F F"
Sb       0.00000000       0.00000000       0.00000000       0.00000000       0.00000000       0.53679812
Sb       0.00000000       0.00000000       4.03333333       0.00000000       0.00000000      -0.53679812
2
Properties=species:S:1:pos:R:3:forces:R:3 energy=-46.453727488516584 pbc="F F F"
Sb       0.00000000       0.00000000       0.00000000       0.00000000       0.00000000       0.49301693
Sb       0.00000000       0.00000000       4.09292929       0.00000000       0.00000000      -0.49301693
2
Properties=species:S:1:pos:R:3:forces:R:3 energy=-46.42550889321766 pbc="F F F"
Sb       0.00000000       0.00000000       0.00000000       0.00000000       0.00000000       0.45444003
Sb       0.00000000       0.00000000       4.15252525       0.00000000       0.00000000      -0.45444003
2
Properties=species:S:1:pos:R:3:forces:R:3 energy=-46.39954460471566 pbc="F F F"
Sb       0.00000000       0.00000000       0.00000000       0.00000000       0.00000000       0.41677347
Sb       0.00000000       0.00000000       4.21212121       0.00000000       0.00000000      -0.41677347
2
Properties=species:S:1:pos:R:3:forces:R:3 energy=-46.375876461135434 pbc="F F F"
Sb       0.00000000       0.00000000       0.00000000       0.00000000       0.00000000       0.37683907
Sb       0.00000000       0.00000000       4.27171717       0.00000000       0.00000000      -0.37683907
2
Properties=species:S:1:pos:R:3:forces:R:3 energy=-46.35471417024824 pbc="F F F"
Sb       0.00000000       0.00000000       0.00000000       0.00000000       0.00000000       0.33254462
Sb       0.00000000       0.00000000       4.33131313       0.00000000       0.00000000      -0.33254462
2
Properties=species:S:1:pos:R:3:forces:R:3 energy=-46.33634755876334 pbc="F F F"
Sb       0.00000000       0.00000000       0.00000000       0.00000000       0.00000000       0.28299373
Sb       0.00000000       0.00000000       4.39090909       0.00000000       0.00000000      -0.28299373
2
Properties=species:S:1:pos:R:3:forces:R:3 energy=-46.32108177078377 pbc="F F F"
Sb       0.00000000       0.00000000       0.00000000       0.00000000       0.00000000       0.22863998
Sb       0.00000000       0.00000000       4.45050505       0.00000000       0.00000000      -0.22863998
2
Properties=species:S:1:pos:R:3:forces:R:3 energy=-46.30915328427785 pbc="F F F"
Sb       0.00000000       0.00000000       0.00000000       0.00000000       0.00000000       0.17131968
Sb       0.00000000       0.00000000       4.51010101       0.00000000       0.00000000      -0.17131968
2
Properties=species:S:1:pos:R:3:forces:R:3 energy=-46.30066132018031 pbc="F F F"
Sb       0.00000000       0.00000000       0.00000000       0.00000000       0.00000000       0.11401610
Sb       0.00000000       0.00000000       4.56969697       0.00000000       0.00000000      -0.11401610
2
Properties=species:S:1:pos:R:3:forces:R:3 energy=-46.29549151439287 pbc="F F F"
Sb       0.00000000       0.00000000       0.00000000       0.00000000       0.00000000       0.06033615
Sb       0.00000000       0.00000000       4.62929293       0.00000000       0.00000000      -0.06033615
2
Properties=species:S:1:pos:R:3:forces:R:3 energy=-46.29332738246689 pbc="F F F"
Sb       0.00000000       0.00000000       0.00000000       0.00000000       0.00000000       0.01377309
Sb       0.00000000       0.00000000       4.68888889       0.00000000       0.00000000      -0.01377309
2
Properties=species:S:1:pos:R:3:forces:R:3 energy=-46.29365412638105 pbc="F F F"
Sb       0.00000000       0.00000000       0.00000000       0.00000000       0.00000000      -0.02301692
Sb       0.00000000       0.00000000       4.74848485       0.00000000       0.00000000       0.02301692
2
Properties=species:S:1:pos:R:3:forces:R:3 energy=-46.295850203114874 pbc="F F F"
Sb       0.00000000       0.00000000       0.00000000       0.00000000       0.00000000      -0.04868566
Sb       0.00000000       0.00000000       4.80808081       0.00000000       0.00000000       0.04868566
2
Properties=species:S:1:pos:R:3:forces:R:3 energy=-46.29923690858556 pbc="F F F"
Sb       0.00000000       0.00000000       0.00000000       0.00000000       0.00000000      -0.06331229
Sb       0.00000000       0.00000000       4.86767677       0.00000000       0.00000000       0.06331229
2
Properties=species:S:1:pos:R:3:forces:R:3 energy=-46.303200429745516 pbc="F F F"
Sb       0.00000000       0.00000000       0.00000000       0.00000000       0.00000000      -0.06811745
Sb       0.00000000       0.00000000       4.92727273       0.00000000       0.00000000       0.06811745
2
Properties=species:S:1:pos:R:3:forces:R:3 energy=-46.307199520702255 pbc="F F F"
Sb       0.00000000       0.00000000       0.00000000       0.00000000       0.00000000      -0.06497700
Sb       0.00000000       0.00000000       4.98686869       0.00000000       0.00000000       0.06497700
2
Properties=species:S:1:pos:R:3:forces:R:3 energy=-46.310826484021675 pbc="F F F"
Sb       0.00000000       0.00000000       0.00000000       0.00000000       0.00000000      -0.05594414
Sb       0.00000000       0.00000000       5.04646465       0.00000000       0.00000000       0.05594414
2
Properties=species:S:1:pos:R:3:forces:R:3 energy=-46.31378811941649 pbc="F F F"
Sb       0.00000000       0.00000000       0.00000000       0.00000000       0.00000000      -0.04296410
Sb       0.00000000       0.00000000       5.10606061       0.00000000       0.00000000       0.04296410
2
Properties=species:S:1:pos:R:3:forces:R:3 energy=-46.31590573324969 pbc="F F F"
Sb       0.00000000       0.00000000       0.00000000       0.00000000       0.00000000      -0.02786676
Sb       0.00000000       0.00000000       5.16565657       0.00000000       0.00000000       0.02786676
2
Properties=species:S:1:pos:R:3:forces:R:3 energy=-46.3171074632066 pbc="F F F"
Sb       0.00000000       0.00000000       0.00000000       0.00000000       0.00000000      -0.01251134
Sb       0.00000000       0.00000000       5.22525253       0.00000000       0.00000000       0.01251134
2
Properties=species:S:1:pos:R:3:forces:R:3 energy=-46.31743213258989 pbc="F F F"
Sb       0.00000000       0.00000000       0.00000000       0.00000000       0.00000000       0.00114174
Sb       0.00000000       0.00000000       5.28484848       0.00000000       0.00000000      -0.00114174
2
Properties=species:S:1:pos:R:3:forces:R:3 energy=-46.31704063739062 pbc="F F F"
Sb       0.00000000       0.00000000       0.00000000       0.00000000       0.00000000       0.01128868
Sb       0.00000000       0.00000000       5.34444444       0.00000000       0.00000000      -0.01128868
2
Properties=species:S:1:pos:R:3:forces:R:3 energy=-46.316170206350975 pbc="F F F"
Sb       0.00000000       0.00000000       0.00000000       0.00000000       0.00000000       0.01722761
Sb       0.00000000       0.00000000       5.40404040       0.00000000       0.00000000      -0.01722761
2
Properties=species:S:1:pos:R:3:forces:R:3 energy=-46.31503900898201 pbc="F F F"
Sb       0.00000000       0.00000000       0.00000000       0.00000000       0.00000000       0.02057095
Sb       0.00000000       0.00000000       5.46363636       0.00000000       0.00000000      -0.02057095
2
Properties=species:S:1:pos:R:3:forces:R:3 energy=-46.313712612648956 pbc="F F F"
Sb       0.00000000       0.00000000       0.00000000       0.00000000       0.00000000       0.02424350
Sb       0.00000000       0.00000000       5.52323232       0.00000000       0.00000000      -0.02424350
2
Properties=species:S:1:pos:R:3:forces:R:3 energy=-46.31212308456795 pbc="F F F"
Sb       0.00000000       0.00000000       0.00000000       0.00000000       0.00000000       0.02909612
Sb       0.00000000       0.00000000       5.58282828       0.00000000       0.00000000      -0.02909612
2
Properties=species:S:1:pos:R:3:forces:R:3 energy=-46.31025967915198 pbc="F F F"
Sb       0.00000000       0.00000000       0.00000000       0.00000000       0.00000000       0.03314593
Sb       0.00000000       0.00000000       5.64242424       0.00000000       0.00000000      -0.03314593
2
Properties=species:S:1:pos:R:3:forces:R:3 energy=-46.30822227624278 pbc="F F F"
Sb       0.00000000       0.00000000       0.00000000       0.00000000       0.00000000       0.03482077
Sb       0.00000000       0.00000000       5.70202020       0.00000000       0.00000000      -0.03482077
2
Properties=species:S:1:pos:R:3:forces:R:3 energy=-46.306145042816006 pbc="F F F"
Sb       0.00000000       0.00000000       0.00000000       0.00000000       0.00000000       0.03469482
Sb       0.00000000       0.00000000       5.76161616       0.00000000       0.00000000      -0.03469482
2
Properties=species:S:1:pos:R:3:forces:R:3 energy=-46.30415829709597 pbc="F F F"
Sb       0.00000000       0.00000000       0.00000000       0.00000000       0.00000000       0.03083848
Sb       0.00000000       0.00000000       5.82121212       0.00000000       0.00000000      -0.03083848
2
Properties=species:S:1:pos:R:3:forces:R:3 energy=-46.302609760205065 pbc="F F F"
Sb       0.00000000       0.00000000       0.00000000       0.00000000       0.00000000       0.02045345
Sb       0.00000000       0.00000000       5.88080808       0.00000000       0.00000000      -0.02045345
2
Properties=species:S:1:pos:R:3:forces:R:3 energy=-46.30174410971416 pbc="F F F"
Sb       0.00000000       0.00000000       0.00000000       0.00000000       0.00000000       0.00884105
Sb       0.00000000       0.00000000       5.94040404       0.00000000       0.00000000      -0.00884105
2
Properties=species:S:1:pos:R:3:forces:R:3 energy=-46.301413054730794 pbc="F F F"
Sb       0.00000000       0.00000000       0.00000000       0.00000000       0.00000000       0.00391572
Sb       0.00000000       0.00000000       6.00000000       0.00000000       0.00000000      -0.00391572
