2
Properties=species:S:1:pos:R:3:forces:R:3 energy=29035.82193970143 pbc="F F F"
Sc       0.00000000       0.00000000       0.00000000       0.00000000       0.00000000  -39773.28906250
Sc       0.00000000       0.00000000       0.18000000       0.00000000       0.00000000   39773.28906250
2
Properties=species:S:1:pos:R:3:forces:R:3 energy=27423.74772095143 pbc="F F F"
Sc       0.00000000       0.00000000       0.00000000       0.00000000       0.00000000  -20130.16796875
Sc       0.00000000       0.00000000       0.23878788       0.00000000       0.00000000   20130.16796875
2
Properties=species:S:1:pos:R:3:forces:R:3 energy=26312.96842407643 pbc="F F F"
Sc       0.00000000       0.00000000       0.00000000       0.00000000       0.00000000  -19601.60742188
Sc       0.00000000       0.00000000       0.29757576       0.00000000       0.00000000   19601.60742188
2
Properties=species:S:1:pos:R:3:forces:R:3 energy=24939.75358032643 pbc="F F F"
Sc       0.00000000       0.00000000       0.00000000       0.00000000       0.00000000  -28406.14453125
Sc       0.00000000       0.00000000       0.35636364       0.00000000       0.00000000   28406.14453125
2
Properties=species:S:1:pos:R:3:forces:R:3 energy=22835.71061157722 pbc="F F F"
Sc       0.00000000       0.00000000       0.00000000       0.00000000       0.00000000  -44222.31640625
Sc       0.00000000       0.00000000       0.41515152       0.00000000       0.00000000   44222.31640625
2
Properties=species:S:1:pos:R:3:forces:R:3 energy=19643.90983032801 pbc="F F F"
Sc       0.00000000       0.00000000       0.00000000       0.00000000       0.00000000  -64814.32812500
Sc       0.00000000       0.00000000       0.47393939       0.00000000       0.00000000   64814.32812500
2
Properties=species:S:1:pos:R:3:forces:R:3 energy=15234.362955329596 pbc="F F F"
Sc       0.00000000       0.00000000       0.00000000       0.00000000       0.00000000  -84201.84375000
Sc       0.00000000       0.00000000       0.53272727       0.00000000       0.00000000   84201.84375000
2
Properties=species:S:1:pos:R:3:forces:R:3 energy=9989.904947520263 pbc="F F F"
Sc       0.00000000       0.00000000       0.00000000       0.00000000       0.00000000  -91011.87500000
Sc       0.00000000       0.00000000       0.59151515       0.00000000       0.00000000   91011.87500000
2
Properties=species:S:1:pos:R:3:forces:R:3 energy=4964.806802993765 pbc="F F F"
Sc       0.00000000       0.00000000       0.00000000       0.00000000       0.00000000  -79533.34375000
Sc       0.00000000       0.00000000       0.65030303       0.00000000       0.00000000   79533.34375000
2
Properties=species:S:1:pos:R:3:forces:R:3 energy=1454.5622961649553 pbc="F F F"
Sc       0.00000000       0.00000000       0.00000000       0.00000000       0.00000000  -38549.28515625
Sc       0.00000000       0.00000000       0.70909091       0.00000000       0.00000000   38549.28515625
2
Properties=species:S:1:pos:R:3:forces:R:3 energy=258.55466678151157 pbc="F F F"
Sc       0.00000000       0.00000000       0.00000000       0.00000000       0.00000000   -6618.13574219
Sc       0.00000000       0.00000000       0.76787879       0.00000000       0.00000000    6618.13574219
2
Properties=species:S:1:pos:R:3:forces:R:3 energy=76.65549687547566 pbc="F F F"
Sc       0.00000000       0.00000000       0.00000000       0.00000000       0.00000000   -1457.18054199
Sc       0.00000000       0.00000000       0.82666667       0.00000000       0.00000000    1457.18054199
2
Properties=species:S:1:pos:R:3:forces:R:3 energy=34.000055614262685 pbc="F F F"
Sc       0.00000000       0.00000000       0.00000000       0.00000000       0.00000000     461.74676514
Sc       0.00000000       0.00000000       0.88545455       0.00000000       0.00000000    -461.74676514
2
Properties=species:S:1:pos:R:3:forces:R:3 energy=27.480480527714306 pbc="F F F"
Sc       0.00000000       0.00000000       0.00000000       0.00000000       0.00000000    -170.63134766
Sc       0.00000000       0.00000000       0.94424242       0.00000000       0.00000000     170.63134766
2
Properties=species:S:1:pos:R:3:forces:R:3 energy=19.939266582806003 pbc="F F F"
Sc       0.00000000       0.00000000       0.00000000       0.00000000       0.00000000     -94.56786346
Sc       0.00000000       0.00000000       1.00303030       0.00000000       0.00000000      94.56786346
2
Properties=species:S:1:pos:R:3:forces:R:3 energy=14.822679957813959 pbc="F F F"
Sc       0.00000000       0.00000000       0.00000000       0.00000000       0.00000000     -82.45991516
Sc       0.00000000       0.00000000       1.06181818       0.00000000       0.00000000      82.45991516
2
Properties=species:S:1:pos:R:3:forces:R:3 energy=10.423111479270254 pbc="F F F"
Sc       0.00000000       0.00000000       0.00000000       0.00000000       0.00000000     -67.34462738
Sc       0.00000000       0.00000000       1.12060606       0.00000000       0.00000000      67.34462738
2
Properties=species:S:1:pos:R:3:forces:R:3 energy=6.667376184885607 pbc="F F F"
Sc       0.00000000       0.00000000       0.00000000       0.00000000       0.00000000     -62.30023956
Sc       0.00000000       0.00000000       1.17939394       0.00000000       0.00000000      62.30023956
2
Properties=species:S:1:pos:R:3:forces:R:3 energy=3.009537494939094 pbc="F F F"
Sc       0.00000000       0.00000000       0.00000000       0.00000000       0.00000000     -62.20528030
Sc       0.00000000       0.00000000       1.23818182       0.00000000       0.00000000      62.20528030
2
Properties=species:S:1:pos:R:3:forces:R:3 energy=-0.6341514911610344 pbc="F F F"
Sc       0.00000000       0.00000000       0.00000000       0.00000000       0.00000000     -61.52793503
Sc       0.00000000       0.00000000       1.29696970       0.00000000       0.00000000      61.52793503
2
Properties=species:S:1:pos:R:3:forces:R:3 energy=-4.167657672349567 pbc="F F F"
Sc       0.00000000       0.00000000       0.00000000       0.00000000       0.00000000     -57.85063553
Sc       0.00000000       0.00000000       1.35575758       0.00000000       0.00000000      57.85063553
2
Properties=species:S:1:pos:R:3:forces:R:3 energy=-7.299980672120146 pbc="F F F"
Sc       0.00000000       0.00000000       0.00000000       0.00000000       0.00000000     -47.41025925
Sc       0.00000000       0.00000000       1.41454545       0.00000000       0.00000000      47.41025925
2
Properties=species:S:1:pos:R:3:forces:R:3 energy=-9.626506031629985 pbc="F F F"
Sc       0.00000000       0.00000000       0.00000000       0.00000000       0.00000000     -31.38591194
Sc       0.00000000       0.00000000       1.47333333       0.00000000       0.00000000      31.38591194
2
Properties=species:S:1:pos:R:3:forces:R:3 energy=-11.036543624493294 pbc="F F F"
Sc       0.00000000       0.00000000       0.00000000       0.00000000       0.00000000     -17.53648376
Sc       0.00000000       0.00000000       1.53212121       0.00000000       0.00000000      17.53648376
2
Properties=species:S:1:pos:R:3:forces:R:3 energy=-11.815532926142934 pbc="F F F"
Sc       0.00000000       0.00000000       0.00000000       0.00000000       0.00000000      -9.96382904
Sc       0.00000000       0.00000000       1.59090909       0.00000000       0.00000000       9.96382904
2
Properties=species:S:1:pos:R:3:forces:R:3 energy=-12.304703361897399 pbc="F F F"
Sc       0.00000000       0.00000000       0.00000000       0.00000000       0.00000000      -7.35615778
Sc       0.00000000       0.00000000       1.64969697       0.00000000       0.00000000       7.35615778
2
Properties=species:S:1:pos:R:3:forces:R:3 energy=-12.746848952782813 pbc="F F F"
Sc       0.00000000       0.00000000       0.00000000       0.00000000       0.00000000      -8.10353088
Sc       0.00000000       0.00000000       1.70848485       0.00000000       0.00000000       8.10353088
2
Properties=species:S:1:pos:R:3:forces:R:3 energy=-13.278860096712886 pbc="F F F"
Sc       0.00000000       0.00000000       0.00000000       0.00000000       0.00000000      -9.91835976
Sc       0.00000000       0.00000000       1.76727273       0.00000000       0.00000000       9.91835976
2
Properties=species:S:1:pos:R:3:forces:R:3 energy=-13.883380847084895 pbc="F F F"
Sc       0.00000000       0.00000000       0.00000000       0.00000000       0.00000000     -10.33295727
Sc       0.00000000       0.00000000       1.82606061       0.00000000       0.00000000      10.33295727
2
Properties=species:S:1:pos:R:3:forces:R:3 energy=-14.465910663003786 pbc="F F F"
Sc       0.00000000       0.00000000       0.00000000       0.00000000       0.00000000      -9.36408138
Sc       0.00000000       0.00000000       1.88484848       0.00000000       0.00000000       9.36408138
2
Properties=species:S:1:pos:R:3:forces:R:3 energy=-14.981113765312772 pbc="F F F"
Sc       0.00000000       0.00000000       0.00000000       0.00000000       0.00000000      -8.18629265
Sc       0.00000000       0.00000000       1.94363636       0.00000000       0.00000000       8.18629265
2
Properties=species:S:1:pos:R:3:forces:R:3 energy=-15.430432123833457 pbc="F F F"
Sc       0.00000000       0.00000000       0.00000000       0.00000000       0.00000000      -7.09281921
Sc       0.00000000       0.00000000       2.00242424       0.00000000       0.00000000       7.09281921
2
Properties=species:S:1:pos:R:3:forces:R:3 energy=-15.811988966115864 pbc="F F F"
Sc       0.00000000       0.00000000       0.00000000       0.00000000       0.00000000      -5.85999298
Sc       0.00000000       0.00000000       2.06121212       0.00000000       0.00000000       5.85999298
2
Properties=species:S:1:pos:R:3:forces:R:3 energy=-16.118755870839188 pbc="F F F"
Sc       0.00000000       0.00000000       0.00000000       0.00000000       0.00000000      -4.59980297
Sc       0.00000000       0.00000000       2.12000000       0.00000000       0.00000000       4.59980297
2
Properties=species:S:1:pos:R:3:forces:R:3 energy=-16.35815364078862 pbc="F F F"
Sc       0.00000000       0.00000000       0.00000000       0.00000000       0.00000000      -3.60044098
Sc       0.00000000       0.00000000       2.17878788       0.00000000       0.00000000       3.60044098
2
Properties=species:S:1:pos:R:3:forces:R:3 energy=-16.547982199854893 pbc="F F F"
Sc       0.00000000       0.00000000       0.00000000       0.00000000       0.00000000      -2.89608574
Sc       0.00000000       0.00000000       2.23757576       0.00000000       0.00000000       2.89608574
2
Properties=species:S:1:pos:R:3:forces:R:3 energy=-16.70161486738023 pbc="F F F"
Sc       0.00000000       0.00000000       0.00000000       0.00000000       0.00000000      -2.34449458
Sc       0.00000000       0.00000000       2.29636364       0.00000000       0.00000000       2.34449458
2
Properties=species:S:1:pos:R:3:forces:R:3 energy=-16.824441458653 pbc="F F F"
Sc       0.00000000       0.00000000       0.00000000       0.00000000       0.00000000      -1.83597481
Sc       0.00000000       0.00000000       2.35515152       0.00000000       0.00000000       1.83597481
2
Properties=species:S:1:pos:R:3:forces:R:3 energy=-16.917276997266814 pbc="F F F"
Sc       0.00000000       0.00000000       0.00000000       0.00000000       0.00000000      -1.31727159
Sc       0.00000000       0.00000000       2.41393939       0.00000000       0.00000000       1.31727159
2
Properties=species:S:1:pos:R:3:forces:R:3 energy=-16.9783935466821 pbc="F F F"
Sc       0.00000000       0.00000000       0.00000000       0.00000000       0.00000000      -0.75216329
Sc       0.00000000       0.00000000       2.47272727       0.00000000       0.00000000       0.75216329
2
Properties=species:S:1:pos:R:3:forces:R:3 energy=-17.004636701345426 pbc="F F F"
Sc       0.00000000       0.00000000       0.00000000       0.00000000       0.00000000      -0.13462818
Sc       0.00000000       0.00000000       2.53151515       0.00000000       0.00000000       0.13462818
2
Properties=species:S:1:pos:R:3:forces:R:3 energy=-16.99425899172954 pbc="F F F"
Sc       0.00000000       0.00000000       0.00000000       0.00000000       0.00000000       0.47957754
Sc       0.00000000       0.00000000       2.59030303       0.00000000       0.00000000      -0.47957754
2
Properties=species:S:1:pos:R:3:forces:R:3 energy=-16.950121901047797 pbc="F F F"
Sc       0.00000000       0.00000000       0.00000000       0.00000000       0.00000000       0.99981499
Sc       0.00000000       0.00000000       2.64909091       0.00000000       0.00000000      -0.99981499
2
Properties=species:S:1:pos:R:3:forces:R:3 energy=-16.87963892086796 pbc="F F F"
Sc       0.00000000       0.00000000       0.00000000       0.00000000       0.00000000       1.37289107
Sc       0.00000000       0.00000000       2.70787879       0.00000000       0.00000000      -1.37289107
2
Properties=species:S:1:pos:R:3:forces:R:3 energy=-16.791353391638616 pbc="F F F"
Sc       0.00000000       0.00000000       0.00000000       0.00000000       0.00000000       1.61152220
Sc       0.00000000       0.00000000       2.76666667       0.00000000       0.00000000      -1.61152220
2
Properties=species:S:1:pos:R:3:forces:R:3 energy=-16.692061841437038 pbc="F F F"
Sc       0.00000000       0.00000000       0.00000000       0.00000000       0.00000000       1.75217998
Sc       0.00000000       0.00000000       2.82545455       0.00000000       0.00000000      -1.75217998
2
Properties=species:S:1:pos:R:3:forces:R:3 energy=-16.58698615212695 pbc="F F F"
Sc       0.00000000       0.00000000       0.00000000       0.00000000       0.00000000       1.80784345
Sc       0.00000000       0.00000000       2.88424242       0.00000000       0.00000000      -1.80784345
2
Properties=species:S:1:pos:R:3:forces:R:3 energy=-16.48138300885009 pbc="F F F"
Sc       0.00000000       0.00000000       0.00000000       0.00000000       0.00000000       1.76797390
Sc       0.00000000       0.00000000       2.94303030       0.00000000       0.00000000      -1.76797390
2
Properties=species:S:1:pos:R:3:forces:R:3 energy=-16.38104729433089 pbc="F F F"
Sc       0.00000000       0.00000000       0.00000000       0.00000000       0.00000000       1.63066781
Sc       0.00000000       0.00000000       3.00181818       0.00000000       0.00000000      -1.63066781
2
Properties=species:S:1:pos:R:3:forces:R:3 energy=-16.291029361777035 pbc="F F F"
Sc       0.00000000       0.00000000       0.00000000       0.00000000       0.00000000       1.42406762
Sc       0.00000000       0.00000000       3.06060606       0.00000000       0.00000000      -1.42406762
2
Properties=species:S:1:pos:R:3:forces:R:3 energy=-16.213971300352508 pbc="F F F"
Sc       0.00000000       0.00000000       0.00000000       0.00000000       0.00000000       1.19917405
Sc       0.00000000       0.00000000       3.11939394       0.00000000       0.00000000      -1.19917405
2
Properties=species:S:1:pos:R:3:forces:R:3 energy=-16.149358835098027 pbc="F F F"
Sc       0.00000000       0.00000000       0.00000000       0.00000000       0.00000000       1.00818074
Sc       0.00000000       0.00000000       3.17818182       0.00000000       0.00000000      -1.00818074
2
Properties=species:S:1:pos:R:3:forces:R:3 energy=-16.094089418061294 pbc="F F F"
Sc       0.00000000       0.00000000       0.00000000       0.00000000       0.00000000       0.88462734
Sc       0.00000000       0.00000000       3.23696970       0.00000000       0.00000000      -0.88462734
2
Properties=species:S:1:pos:R:3:forces:R:3 energy=-16.04395775058588 pbc="F F F"
Sc       0.00000000       0.00000000       0.00000000       0.00000000       0.00000000       0.83122575
Sc       0.00000000       0.00000000       3.29575758       0.00000000       0.00000000      -0.83122575
2
Properties=species:S:1:pos:R:3:forces:R:3 energy=-15.995402994984286 pbc="F F F"
Sc       0.00000000       0.00000000       0.00000000       0.00000000       0.00000000       0.82641035
Sc       0.00000000       0.00000000       3.35454545       0.00000000       0.00000000      -0.82641035
2
Properties=species:S:1:pos:R:3:forces:R:3 energy=-15.946349303691125 pbc="F F F"
Sc       0.00000000       0.00000000       0.00000000       0.00000000       0.00000000       0.84439111
Sc       0.00000000       0.00000000       3.41333333       0.00000000       0.00000000      -0.84439111
2
Properties=species:S:1:pos:R:3:forces:R:3 energy=-15.896050206525986 pbc="F F F"
Sc       0.00000000       0.00000000       0.00000000       0.00000000       0.00000000       0.86639917
Sc       0.00000000       0.00000000       3.47212121       0.00000000       0.00000000      -0.86639917
2
Properties=species:S:1:pos:R:3:forces:R:3 energy=-15.844602153747385 pbc="F F F"
Sc       0.00000000       0.00000000       0.00000000       0.00000000       0.00000000       0.88260734
Sc       0.00000000       0.00000000       3.53090909       0.00000000       0.00000000      -0.88260734
2
Properties=species:S:1:pos:R:3:forces:R:3 energy=-15.792420763419358 pbc="F F F"
Sc       0.00000000       0.00000000       0.00000000       0.00000000       0.00000000       0.89167148
Sc       0.00000000       0.00000000       3.58969697       0.00000000       0.00000000      -0.89167148
2
Properties=species:S:1:pos:R:3:forces:R:3 energy=-15.739836729670706 pbc="F F F"
Sc       0.00000000       0.00000000       0.00000000       0.00000000       0.00000000       0.89691192
Sc       0.00000000       0.00000000       3.64848485       0.00000000       0.00000000      -0.89691192
2
Properties=species:S:1:pos:R:3:forces:R:3 energy=-15.687003182060469 pbc="F F F"
Sc       0.00000000       0.00000000       0.00000000       0.00000000       0.00000000       0.90003961
Sc       0.00000000       0.00000000       3.70727273       0.00000000       0.00000000      -0.90003961
2
Properties=species:S:1:pos:R:3:forces:R:3 energy=-15.634113556964818 pbc="F F F"
Sc       0.00000000       0.00000000       0.00000000       0.00000000       0.00000000       0.89800388
Sc       0.00000000       0.00000000       3.76606061       0.00000000       0.00000000      -0.89800388
2
Properties=species:S:1:pos:R:3:forces:R:3 energy=-15.581620874706925 pbc="F F F"
Sc       0.00000000       0.00000000       0.00000000       0.00000000       0.00000000       0.88582152
Sc       0.00000000       0.00000000       3.82484848       0.00000000       0.00000000      -0.88582152
2
Properties=species:S:1:pos:R:3:forces:R:3 energy=-15.530205431360066 pbc="F F F"
Sc       0.00000000       0.00000000       0.00000000       0.00000000       0.00000000       0.86138052
Sc       0.00000000       0.00000000       3.88363636       0.00000000       0.00000000      -0.86138052
2
Properties=species:S:1:pos:R:3:forces:R:3 energy=-15.4805421622432 pbc="F F F"
Sc       0.00000000       0.00000000       0.00000000       0.00000000       0.00000000       0.82685786
Sc       0.00000000       0.00000000       3.94242424       0.00000000       0.00000000      -0.82685786
2
Properties=species:S:1:pos:R:3:forces:R:3 energy=-15.433102689480023 pbc="F F F"
Sc       0.00000000       0.00000000       0.00000000       0.00000000       0.00000000       0.78642297
Sc       0.00000000       0.00000000       4.00121212       0.00000000       0.00000000      -0.78642297
2
Properties=species:S:1:pos:R:3:forces:R:3 energy=-15.38812392994209 pbc="F F F"
Sc       0.00000000       0.00000000       0.00000000       0.00000000       0.00000000       0.74359310
Sc       0.00000000       0.00000000       4.06000000       0.00000000       0.00000000      -0.74359310
2
Properties=species:S:1:pos:R:3:forces:R:3 energy=-15.34567972536067 pbc="F F F"
Sc       0.00000000       0.00000000       0.00000000       0.00000000       0.00000000       0.70045543
Sc       0.00000000       0.00000000       4.11878788       0.00000000       0.00000000      -0.70045543
2
Properties=species:S:1:pos:R:3:forces:R:3 energy=-15.3057494878706 pbc="F F F"
Sc       0.00000000       0.00000000       0.00000000       0.00000000       0.00000000       0.65817720
Sc       0.00000000       0.00000000       4.17757576       0.00000000       0.00000000      -0.65817720
2
Properties=species:S:1:pos:R:3:forces:R:3 energy=-15.268260190190597 pbc="F F F"
Sc       0.00000000       0.00000000       0.00000000       0.00000000       0.00000000       0.61757499
Sc       0.00000000       0.00000000       4.23636364       0.00000000       0.00000000      -0.61757499
2
Properties=species:S:1:pos:R:3:forces:R:3 energy=-15.233093060350422 pbc="F F F"
Sc       0.00000000       0.00000000       0.00000000       0.00000000       0.00000000       0.57921153
Sc       0.00000000       0.00000000       4.29515152       0.00000000       0.00000000      -0.57921153
2
Properties=species:S:1:pos:R:3:forces:R:3 energy=-15.200110278236076 pbc="F F F"
Sc       0.00000000       0.00000000       0.00000000       0.00000000       0.00000000       0.54332590
Sc       0.00000000       0.00000000       4.35393939       0.00000000       0.00000000      -0.54332590
2
Properties=species:S:1:pos:R:3:forces:R:3 energy=-15.16916548818205 pbc="F F F"
Sc       0.00000000       0.00000000       0.00000000       0.00000000       0.00000000       0.50983751
Sc       0.00000000       0.00000000       4.41272727       0.00000000       0.00000000      -0.50983751
2
Properties=species:S:1:pos:R:3:forces:R:3 energy=-15.14012287879329 pbc="F F F"
Sc       0.00000000       0.00000000       0.00000000       0.00000000       0.00000000       0.47852454
Sc       0.00000000       0.00000000       4.47151515       0.00000000       0.00000000      -0.47852454
2
Properties=species:S:1:pos:R:3:forces:R:3 energy=-15.112862892319809 pbc="F F F"
Sc       0.00000000       0.00000000       0.00000000       0.00000000       0.00000000       0.44920626
Sc       0.00000000       0.00000000       4.53030303       0.00000000       0.00000000      -0.44920626
2
Properties=species:S:1:pos:R:3:forces:R:3 energy=-15.087270818578753 pbc="F F F"
Sc       0.00000000       0.00000000       0.00000000       0.00000000       0.00000000       0.42178974
Sc       0.00000000       0.00000000       4.58909091       0.00000000       0.00000000      -0.42178974
2
Properties=species:S:1:pos:R:3:forces:R:3 energy=-15.063234887605777 pbc="F F F"
Sc       0.00000000       0.00000000       0.00000000       0.00000000       0.00000000       0.39622876
Sc       0.00000000       0.00000000       4.64787879       0.00000000       0.00000000      -0.39622876
2
Properties=species:S:1:pos:R:3:forces:R:3 energy=-15.04065006851319 pbc="F F F"
Sc       0.00000000       0.00000000       0.00000000       0.00000000       0.00000000       0.37235564
Sc       0.00000000       0.00000000       4.70666667       0.00000000       0.00000000      -0.37235564
2
Properties=species:S:1:pos:R:3:forces:R:3 energy=-15.019428597921303 pbc="F F F"
Sc       0.00000000       0.00000000       0.00000000       0.00000000       0.00000000       0.34979022
Sc       0.00000000       0.00000000       4.76545455       0.00000000       0.00000000      -0.34979022
2
Properties=species:S:1:pos:R:3:forces:R:3 energy=-14.99950761568861 pbc="F F F"
Sc       0.00000000       0.00000000       0.00000000       0.00000000       0.00000000       0.32799056
Sc       0.00000000       0.00000000       4.82424242       0.00000000       0.00000000      -0.32799056
2
Properties=species:S:1:pos:R:3:forces:R:3 energy=-14.980858682648018 pbc="F F F"
Sc       0.00000000       0.00000000       0.00000000       0.00000000       0.00000000       0.30655408
Sc       0.00000000       0.00000000       4.88303030       0.00000000       0.00000000      -0.30655408
2
Properties=species:S:1:pos:R:3:forces:R:3 energy=-14.963456328361328 pbc="F F F"
Sc       0.00000000       0.00000000       0.00000000       0.00000000       0.00000000       0.28560257
Sc       0.00000000       0.00000000       4.94181818       0.00000000       0.00000000      -0.28560257
2
Properties=species:S:1:pos:R:3:forces:R:3 energy=-14.947250413571009 pbc="F F F"
Sc       0.00000000       0.00000000       0.00000000       0.00000000       0.00000000       0.26611325
Sc       0.00000000       0.00000000       5.00060606       0.00000000       0.00000000      -0.26611325
2
Properties=species:S:1:pos:R:3:forces:R:3 energy=-14.932106036046964 pbc="F F F"
Sc       0.00000000       0.00000000       0.00000000       0.00000000       0.00000000       0.24973269
Sc       0.00000000       0.00000000       5.05939394       0.00000000       0.00000000      -0.24973269
2
Properties=species:S:1:pos:R:3:forces:R:3 energy=-14.91779494593377 pbc="F F F"
Sc       0.00000000       0.00000000       0.00000000       0.00000000       0.00000000       0.23804790
Sc       0.00000000       0.00000000       5.11818182       0.00000000       0.00000000      -0.23804790
2
Properties=species:S:1:pos:R:3:forces:R:3 energy=-14.90402034920247 pbc="F F F"
Sc       0.00000000       0.00000000       0.00000000       0.00000000       0.00000000       0.23128551
Sc       0.00000000       0.00000000       5.17696970       0.00000000       0.00000000      -0.23128551
2
Properties=species:S:1:pos:R:3:forces:R:3 energy=-14.890550415719222 pbc="F F F"
Sc       0.00000000       0.00000000       0.00000000       0.00000000       0.00000000       0.22700915
Sc       0.00000000       0.00000000       5.23575758       0.00000000       0.00000000      -0.22700915
2
Properties=species:S:1:pos:R:3:forces:R:3 energy=-14.87738325223074 pbc="F F F"
Sc       0.00000000       0.00000000       0.00000000       0.00000000       0.00000000       0.21997565
Sc       0.00000000       0.00000000       5.29454545       0.00000000       0.00000000      -0.21997565
2
Properties=species:S:1:pos:R:3:forces:R:3 energy=-14.864829906875872 pbc="F F F"
Sc       0.00000000       0.00000000       0.00000000       0.00000000       0.00000000       0.20595913
Sc       0.00000000       0.00000000       5.35333333       0.00000000       0.00000000      -0.20595913
2
Properties=species:S:1:pos:R:3:forces:R:3 energy=-14.85319100706808 pbc="F F F"
Sc       0.00000000       0.00000000       0.00000000       0.00000000       0.00000000       0.19136231
Sc       0.00000000       0.00000000       5.41212121       0.00000000       0.00000000      -0.19136231
2
Properties=species:S:1:pos:R:3:forces:R:3 energy=-14.841990978026285 pbc="F F F"
Sc       0.00000000       0.00000000       0.00000000       0.00000000       0.00000000       0.19320300
Sc       0.00000000       0.00000000       5.47090909       0.00000000       0.00000000      -0.19320300
2
Properties=species:S:1:pos:R:3:forces:R:3 energy=-14.830259362443016 pbc="F F F"
Sc       0.00000000       0.00000000       0.00000000       0.00000000       0.00000000       0.20460939
Sc       0.00000000       0.00000000       5.52969697       0.00000000       0.00000000      -0.20460939
2
Properties=species:S:1:pos:R:3:forces:R:3 energy=-14.818395253772978 pbc="F F F"
Sc       0.00000000       0.00000000       0.00000000       0.00000000       0.00000000       0.19422700
Sc       0.00000000       0.00000000       5.58848485       0.00000000       0.00000000      -0.19422700
2
Properties=species:S:1:pos:R:3:forces:R:3 energy=-14.807790548944663 pbc="F F F"
Sc       0.00000000       0.00000000       0.00000000       0.00000000       0.00000000       0.16646655
Sc       0.00000000       0.00000000       5.64727273       0.00000000       0.00000000      -0.16646655
2
Properties=species:S:1:pos:R:3:forces:R:3 energy=-14.798517288143048 pbc="F F F"
Sc       0.00000000       0.00000000       0.00000000       0.00000000       0.00000000       0.15356942
Sc       0.00000000       0.00000000       5.70606061       0.00000000       0.00000000      -0.15356942
2
Properties=species:S:1:pos:R:3:forces:R:3 energy=-14.789279019003379 pbc="F F F"
Sc       0.00000000       0.00000000       0.00000000       0.00000000       0.00000000       0.16046190
Sc       0.00000000       0.00000000       5.76484848       0.00000000       0.00000000      -0.16046190
2
Properties=species:S:1:pos:R:3:forces:R:3 energy=-14.780160203235416 pbc="F F F"
Sc       0.00000000       0.00000000       0.00000000       0.00000000       0.00000000       0.14242953
Sc       0.00000000       0.00000000       5.82363636       0.00000000       0.00000000      -0.14242953
2
Properties=species:S:1:pos:R:3:forces:R:3 energy=-14.77334907958051 pbc="F F F"
Sc       0.00000000       0.00000000       0.00000000       0.00000000       0.00000000       0.08646616
Sc       0.00000000       0.00000000       5.88242424       0.00000000       0.00000000      -0.08646616
2
Properties=species:S:1:pos:R:3:forces:R:3 energy=-14.769973381933239 pbc="F F F"
Sc       0.00000000       0.00000000       0.00000000       0.00000000       0.00000000       0.03143786
Sc       0.00000000       0.00000000       5.94121212       0.00000000       0.00000000      -0.03143786
2
Properties=species:S:1:pos:R:3:forces:R:3 energy=-14.768974011959857 pbc="F F F"
Sc       0.00000000       0.00000000       0.00000000       0.00000000       0.00000000       0.00975875
Sc       0.00000000       0.00000000       6.00000000       0.00000000       0.00000000      -0.00975875
