2
Properties=species:S:1:pos:R:3:forces:R:3 energy=-9296.99699358083 pbc="F F F"
Se       0.00000000       0.00000000       0.00000000       0.00000000       0.00000000  -73543.57031250
Se       0.00000000       0.00000000       0.18000000       0.00000000       0.00000000   73543.57031250
2
Properties=species:S:1:pos:R:3:forces:R:3 energy=-11512.34074358083 pbc="F F F"
Se       0.00000000       0.00000000       0.00000000       0.00000000       0.00000000  -10437.05859375
Se       0.00000000       0.00000000       0.23878788       0.00000000       0.00000000   10437.05859375
2
Properties=species:S:1:pos:R:3:forces:R:3 energy=-11077.632735767538 pbc="F F F"
Se       0.00000000       0.00000000       0.00000000       0.00000000       0.00000000   23334.48632812
Se       0.00000000       0.00000000       0.29757576       0.00000000       0.00000000  -23334.48632812
2
Properties=species:S:1:pos:R:3:forces:R:3 energy=-8937.169845142538 pbc="F F F"
Se       0.00000000       0.00000000       0.00000000       0.00000000       0.00000000   47845.55468750
Se       0.00000000       0.00000000       0.35636364       0.00000000       0.00000000  -47845.55468750
2
Properties=species:S:1:pos:R:3:forces:R:3 energy=-5740.755294360495 pbc="F F F"
Se       0.00000000       0.00000000       0.00000000       0.00000000       0.00000000   57549.00390625
Se       0.00000000       0.00000000       0.41515152       0.00000000       0.00000000  -57549.00390625
2
Properties=species:S:1:pos:R:3:forces:R:3 energy=-2614.7438197495367 pbc="F F F"
Se       0.00000000       0.00000000       0.00000000       0.00000000       0.00000000   45279.35156250
Se       0.00000000       0.00000000       0.47393939       0.00000000       0.00000000  -45279.35156250
2
Properties=species:S:1:pos:R:3:forces:R:3 energy=-663.5048060744938 pbc="F F F"
Se       0.00000000       0.00000000       0.00000000       0.00000000       0.00000000   20922.25195312
Se       0.00000000       0.00000000       0.53272727       0.00000000       0.00000000  -20922.25195312
2
Properties=species:S:1:pos:R:3:forces:R:3 energy=0.8466534350157402 pbc="F F F"
Se       0.00000000       0.00000000       0.00000000       0.00000000       0.00000000    2308.85644531
Se       0.00000000       0.00000000       0.59151515       0.00000000       0.00000000   -2308.85644531
2
Properties=species:S:1:pos:R:3:forces:R:3 energy=350.922348483153 pbc="F F F"
Se       0.00000000       0.00000000       0.00000000       0.00000000       0.00000000   -4800.15625000
Se       0.00000000       0.00000000       0.65030303       0.00000000       0.00000000    4800.15625000
2
Properties=species:S:1:pos:R:3:forces:R:3 energy=122.71711015591495 pbc="F F F"
Se       0.00000000       0.00000000       0.00000000       0.00000000       0.00000000   -3004.61596680
Se       0.00000000       0.00000000       0.70909091       0.00000000       0.00000000    3004.61596680
2
Properties=species:S:1:pos:R:3:forces:R:3 energy=61.88356830955644 pbc="F F F"
Se       0.00000000       0.00000000       0.00000000       0.00000000       0.00000000    -145.05262756
Se       0.00000000       0.00000000       0.76787879       0.00000000       0.00000000     145.05262756
2
Properties=species:S:1:pos:R:3:forces:R:3 energy=74.02326255826966 pbc="F F F"
Se       0.00000000       0.00000000       0.00000000       0.00000000       0.00000000     454.69201660
Se       0.00000000       0.00000000       0.82666667       0.00000000       0.00000000    -454.69201660
2
Properties=species:S:1:pos:R:3:forces:R:3 energy=93.36488400629669 pbc="F F F"
Se       0.00000000       0.00000000       0.00000000       0.00000000       0.00000000     286.81759644
Se       0.00000000       0.00000000       0.88545455       0.00000000       0.00000000    -286.81759644
2
Properties=species:S:1:pos:R:3:forces:R:3 energy=104.29454868622128 pbc="F F F"
Se       0.00000000       0.00000000       0.00000000       0.00000000       0.00000000      44.26822281
Se       0.00000000       0.00000000       0.94424242       0.00000000       0.00000000     -44.26822281
2
Properties=species:S:1:pos:R:3:forces:R:3 energy=97.90564802442 pbc="F F F"
Se       0.00000000       0.00000000       0.00000000       0.00000000       0.00000000    -235.22834778
Se       0.00000000       0.00000000       1.00303030       0.00000000       0.00000000     235.22834778
2
Properties=species:S:1:pos:R:3:forces:R:3 energy=74.6955651433204 pbc="F F F"
Se       0.00000000       0.00000000       0.00000000       0.00000000       0.00000000    -519.00860596
Se       0.00000000       0.00000000       1.06181818       0.00000000       0.00000000     519.00860596
2
Properties=species:S:1:pos:R:3:forces:R:3 energy=45.110459416010826 pbc="F F F"
Se       0.00000000       0.00000000       0.00000000       0.00000000       0.00000000    -461.31063843
Se       0.00000000       0.00000000       1.12060606       0.00000000       0.00000000     461.31063843
2
Properties=species:S:1:pos:R:3:forces:R:3 energy=23.548779793710704 pbc="F F F"
Se       0.00000000       0.00000000       0.00000000       0.00000000       0.00000000    -253.13549805
Se       0.00000000       0.00000000       1.17939394       0.00000000       0.00000000     253.13549805
2
Properties=species:S:1:pos:R:3:forces:R:3 energy=13.108384721214222 pbc="F F F"
Se       0.00000000       0.00000000       0.00000000       0.00000000       0.00000000    -131.95912170
Se       0.00000000       0.00000000       1.23818182       0.00000000       0.00000000     131.95912170
2
Properties=species:S:1:pos:R:3:forces:R:3 energy=5.97683333741637 pbc="F F F"
Se       0.00000000       0.00000000       0.00000000       0.00000000       0.00000000    -116.89589691
Se       0.00000000       0.00000000       1.29696970       0.00000000       0.00000000     116.89589691
2
Properties=species:S:1:pos:R:3:forces:R:3 energy=-0.7087188082148724 pbc="F F F"
Se       0.00000000       0.00000000       0.00000000       0.00000000       0.00000000    -109.00513458
Se       0.00000000       0.00000000       1.35575758       0.00000000       0.00000000     109.00513458
2
Properties=species:S:1:pos:R:3:forces:R:3 energy=-6.705832425861085 pbc="F F F"
Se       0.00000000       0.00000000       0.00000000       0.00000000       0.00000000     -94.60279083
Se       0.00000000       0.00000000       1.41454545       0.00000000       0.00000000      94.60279083
2
Properties=species:S:1:pos:R:3:forces:R:3 energy=-11.816631518368924 pbc="F F F"
Se       0.00000000       0.00000000       0.00000000       0.00000000       0.00000000     -79.14508057
Se       0.00000000       0.00000000       1.47333333       0.00000000       0.00000000      79.14508057
2
Properties=species:S:1:pos:R:3:forces:R:3 energy=-15.999096217924546 pbc="F F F"
Se       0.00000000       0.00000000       0.00000000       0.00000000       0.00000000     -63.17769241
Se       0.00000000       0.00000000       1.53212121       0.00000000       0.00000000      63.17769241
2
Properties=species:S:1:pos:R:3:forces:R:3 energy=-19.271126009262183 pbc="F F F"
Se       0.00000000       0.00000000       0.00000000       0.00000000       0.00000000     -48.52017975
Se       0.00000000       0.00000000       1.59090909       0.00000000       0.00000000      48.52017975
2
Properties=species:S:1:pos:R:3:forces:R:3 energy=-21.757716093123985 pbc="F F F"
Se       0.00000000       0.00000000       0.00000000       0.00000000       0.00000000     -36.55890656
Se       0.00000000       0.00000000       1.64969697       0.00000000       0.00000000      36.55890656
2
Properties=species:S:1:pos:R:3:forces:R:3 energy=-23.62380536056873 pbc="F F F"
Se       0.00000000       0.00000000       0.00000000       0.00000000       0.00000000     -27.34954453
Se       0.00000000       0.00000000       1.70848485       0.00000000       0.00000000      27.34954453
2
Properties=species:S:1:pos:R:3:forces:R:3 energy=-25.017224735133407 pbc="F F F"
Se       0.00000000       0.00000000       0.00000000       0.00000000       0.00000000     -20.37361908
Se       0.00000000       0.00000000       1.76727273       0.00000000       0.00000000      20.37361908
2
Properties=species:S:1:pos:R:3:forces:R:3 energy=-26.04985925277276 pbc="F F F"
Se       0.00000000       0.00000000       0.00000000       0.00000000       0.00000000     -14.96401405
Se       0.00000000       0.00000000       1.82606061       0.00000000       0.00000000      14.96401405
2
Properties=species:S:1:pos:R:3:forces:R:3 energy=-26.79647881992544 pbc="F F F"
Se       0.00000000       0.00000000       0.00000000       0.00000000       0.00000000     -10.58062458
Se       0.00000000       0.00000000       1.88484848       0.00000000       0.00000000      10.58062458
2
Properties=species:S:1:pos:R:3:forces:R:3 energy=-27.30965182395111 pbc="F F F"
Se       0.00000000       0.00000000       0.00000000       0.00000000       0.00000000      -7.00512075
Se       0.00000000       0.00000000       1.94363636       0.00000000       0.00000000       7.00512075
2
Properties=species:S:1:pos:R:3:forces:R:3 energy=-27.63411126481779 pbc="F F F"
Se       0.00000000       0.00000000       0.00000000       0.00000000       0.00000000      -4.14164400
Se       0.00000000       0.00000000       2.00242424       0.00000000       0.00000000       4.14164400
2
Properties=species:S:1:pos:R:3:forces:R:3 energy=-27.807971617395065 pbc="F F F"
Se       0.00000000       0.00000000       0.00000000       0.00000000       0.00000000      -1.85999000
Se       0.00000000       0.00000000       2.06121212       0.00000000       0.00000000       1.85999000
2
Properties=species:S:1:pos:R:3:forces:R:3 energy=-27.862410334326707 pbc="F F F"
Se       0.00000000       0.00000000       0.00000000       0.00000000       0.00000000      -0.07200330
Se       0.00000000       0.00000000       2.12000000       0.00000000       0.00000000       0.07200330
2
Properties=species:S:1:pos:R:3:forces:R:3 energy=-27.825919327717138 pbc="F F F"
Se       0.00000000       0.00000000       0.00000000       0.00000000       0.00000000       1.23271656
Se       0.00000000       0.00000000       2.17878788       0.00000000       0.00000000      -1.23271656
2
Properties=species:S:1:pos:R:3:forces:R:3 energy=-27.726593737597604 pbc="F F F"
Se       0.00000000       0.00000000       0.00000000       0.00000000       0.00000000       2.07466626
Se       0.00000000       0.00000000       2.23757576       0.00000000       0.00000000      -2.07466626
2
Properties=species:S:1:pos:R:3:forces:R:3 energy=-27.58930342973032 pbc="F F F"
Se       0.00000000       0.00000000       0.00000000       0.00000000       0.00000000       2.54626989
Se       0.00000000       0.00000000       2.29636364       0.00000000       0.00000000      -2.54626989
2
Properties=species:S:1:pos:R:3:forces:R:3 energy=-27.43102751156277 pbc="F F F"
Se       0.00000000       0.00000000       0.00000000       0.00000000       0.00000000       2.82613540
Se       0.00000000       0.00000000       2.35515152       0.00000000       0.00000000      -2.82613540
2
Properties=species:S:1:pos:R:3:forces:R:3 energy=-27.255939159741278 pbc="F F F"
Se       0.00000000       0.00000000       0.00000000       0.00000000       0.00000000       3.15760946
Se       0.00000000       0.00000000       2.41393939       0.00000000       0.00000000      -3.15760946
2
Properties=species:S:1:pos:R:3:forces:R:3 energy=-27.055914884571855 pbc="F F F"
Se       0.00000000       0.00000000       0.00000000       0.00000000       0.00000000       3.67445707
Se       0.00000000       0.00000000       2.47272727       0.00000000       0.00000000      -3.67445707
2
Properties=species:S:1:pos:R:3:forces:R:3 energy=-26.823250737031998 pbc="F F F"
Se       0.00000000       0.00000000       0.00000000       0.00000000       0.00000000       4.21841860
Se       0.00000000       0.00000000       2.53151515       0.00000000       0.00000000      -4.21841860
2
Properties=species:S:1:pos:R:3:forces:R:3 energy=-26.565860127617295 pbc="F F F"
Se       0.00000000       0.00000000       0.00000000       0.00000000       0.00000000       4.46733856
Se       0.00000000       0.00000000       2.59030303       0.00000000       0.00000000      -4.46733856
2
Properties=species:S:1:pos:R:3:forces:R:3 energy=-26.306566199206696 pbc="F F F"
Se       0.00000000       0.00000000       0.00000000       0.00000000       0.00000000       4.29236317
Se       0.00000000       0.00000000       2.64909091       0.00000000       0.00000000      -4.29236317
2
Properties=species:S:1:pos:R:3:forces:R:3 energy=-26.065433994112283 pbc="F F F"
Se       0.00000000       0.00000000       0.00000000       0.00000000       0.00000000       3.90387774
Se       0.00000000       0.00000000       2.70787879       0.00000000       0.00000000      -3.90387774
2
Properties=species:S:1:pos:R:3:forces:R:3 energy=-25.84558751576772 pbc="F F F"
Se       0.00000000       0.00000000       0.00000000       0.00000000       0.00000000       3.60856748
Se       0.00000000       0.00000000       2.76666667       0.00000000       0.00000000      -3.60856748
2
Properties=species:S:1:pos:R:3:forces:R:3 energy=-25.636948079779494 pbc="F F F"
Se       0.00000000       0.00000000       0.00000000       0.00000000       0.00000000       3.51976705
Se       0.00000000       0.00000000       2.82545455       0.00000000       0.00000000      -3.51976705
2
Properties=species:S:1:pos:R:3:forces:R:3 energy=-25.42971554672245 pbc="F F F"
Se       0.00000000       0.00000000       0.00000000       0.00000000       0.00000000       3.53270197
Se       0.00000000       0.00000000       2.88424242       0.00000000       0.00000000      -3.53270197
2
Properties=species:S:1:pos:R:3:forces:R:3 energy=-25.222901827641405 pbc="F F F"
Se       0.00000000       0.00000000       0.00000000       0.00000000       0.00000000       3.48171973
Se       0.00000000       0.00000000       2.94303030       0.00000000       0.00000000      -3.48171973
2
Properties=species:S:1:pos:R:3:forces:R:3 energy=-25.023390513657876 pbc="F F F"
Se       0.00000000       0.00000000       0.00000000       0.00000000       0.00000000       3.27957654
Se       0.00000000       0.00000000       3.00181818       0.00000000       0.00000000      -3.27957654
2
Properties=species:S:1:pos:R:3:forces:R:3 energy=-24.839867602337513 pbc="F F F"
Se       0.00000000       0.00000000       0.00000000       0.00000000       0.00000000       2.94846153
Se       0.00000000       0.00000000       3.06060606       0.00000000       0.00000000      -2.94846153
2
Properties=species:S:1:pos:R:3:forces:R:3 energy=-24.67772114290784 pbc="F F F"
Se       0.00000000       0.00000000       0.00000000       0.00000000       0.00000000       2.56600046
Se       0.00000000       0.00000000       3.11939394       0.00000000       0.00000000      -2.56600046
2
Properties=species:S:1:pos:R:3:forces:R:3 energy=-24.537767201815345 pbc="F F F"
Se       0.00000000       0.00000000       0.00000000       0.00000000       0.00000000       2.20278478
Se       0.00000000       0.00000000       3.17818182       0.00000000       0.00000000      -2.20278478
2
Properties=species:S:1:pos:R:3:forces:R:3 energy=-24.417611774589687 pbc="F F F"
Se       0.00000000       0.00000000       0.00000000       0.00000000       0.00000000       1.89550281
Se       0.00000000       0.00000000       3.23696970       0.00000000       0.00000000      -1.89550281
2
Properties=species:S:1:pos:R:3:forces:R:3 energy=-24.313664938080358 pbc="F F F"
Se       0.00000000       0.00000000       0.00000000       0.00000000       0.00000000       1.65078163
Se       0.00000000       0.00000000       3.29575758       0.00000000       0.00000000      -1.65078163
2
Properties=species:S:1:pos:R:3:forces:R:3 energy=-24.222468432421365 pbc="F F F"
Se       0.00000000       0.00000000       0.00000000       0.00000000       0.00000000       1.45959663
Se       0.00000000       0.00000000       3.35454545       0.00000000       0.00000000      -1.45959663
2
Properties=species:S:1:pos:R:3:forces:R:3 energy=-24.141256310655493 pbc="F F F"
Se       0.00000000       0.00000000       0.00000000       0.00000000       0.00000000       1.30908334
Se       0.00000000       0.00000000       3.41333333       0.00000000       0.00000000      -1.30908334
2
Properties=species:S:1:pos:R:3:forces:R:3 energy=-24.06797604390628 pbc="F F F"
Se       0.00000000       0.00000000       0.00000000       0.00000000       0.00000000       1.18805957
Se       0.00000000       0.00000000       3.47212121       0.00000000       0.00000000      -1.18805957
2
Properties=species:S:1:pos:R:3:forces:R:3 energy=-24.001158713173098 pbc="F F F"
Se       0.00000000       0.00000000       0.00000000       0.00000000       0.00000000       1.08809423
Se       0.00000000       0.00000000       3.53090909       0.00000000       0.00000000      -1.08809423
2
Properties=species:S:1:pos:R:3:forces:R:3 energy=-23.939753137316288 pbc="F F F"
Se       0.00000000       0.00000000       0.00000000       0.00000000       0.00000000       1.00289321
Se       0.00000000       0.00000000       3.58969697       0.00000000       0.00000000      -1.00289321
2
Properties=species:S:1:pos:R:3:forces:R:3 energy=-23.883045739863984 pbc="F F F"
Se       0.00000000       0.00000000       0.00000000       0.00000000       0.00000000       0.92767954
Se       0.00000000       0.00000000       3.64848485       0.00000000       0.00000000      -0.92767954
2
Properties=species:S:1:pos:R:3:forces:R:3 energy=-23.830557572776783 pbc="F F F"
Se       0.00000000       0.00000000       0.00000000       0.00000000       0.00000000       0.85888231
Se       0.00000000       0.00000000       3.70727273       0.00000000       0.00000000      -0.85888231
2
Properties=species:S:1:pos:R:3:forces:R:3 energy=-23.78198706589443 pbc="F F F"
Se       0.00000000       0.00000000       0.00000000       0.00000000       0.00000000       0.79400021
Se       0.00000000       0.00000000       3.76606061       0.00000000       0.00000000      -0.79400021
2
Properties=species:S:1:pos:R:3:forces:R:3 energy=-23.737156660771905 pbc="F F F"
Se       0.00000000       0.00000000       0.00000000       0.00000000       0.00000000       0.73146307
Se       0.00000000       0.00000000       3.82484848       0.00000000       0.00000000      -0.73146307
2
Properties=species:S:1:pos:R:3:forces:R:3 energy=-23.695955601307798 pbc="F F F"
Se       0.00000000       0.00000000       0.00000000       0.00000000       0.00000000       0.67038929
Se       0.00000000       0.00000000       3.88363636       0.00000000       0.00000000      -0.67038929
2
Properties=species:S:1:pos:R:3:forces:R:3 energy=-23.65831508039933 pbc="F F F"
Se       0.00000000       0.00000000       0.00000000       0.00000000       0.00000000       0.61033493
Se       0.00000000       0.00000000       3.94242424       0.00000000       0.00000000      -0.61033493
2
Properties=species:S:1:pos:R:3:forces:R:3 energy=-23.624179704948638 pbc="F F F"
Se       0.00000000       0.00000000       0.00000000       0.00000000       0.00000000       0.55106372
Se       0.00000000       0.00000000       4.00121212       0.00000000       0.00000000      -0.55106372
2
Properties=species:S:1:pos:R:3:forces:R:3 energy=-23.593511276505957 pbc="F F F"
Se       0.00000000       0.00000000       0.00000000       0.00000000       0.00000000       0.49238104
Se       0.00000000       0.00000000       4.06000000       0.00000000       0.00000000      -0.49238104
2
Properties=species:S:1:pos:R:3:forces:R:3 energy=-23.566281165042906 pbc="F F F"
Se       0.00000000       0.00000000       0.00000000       0.00000000       0.00000000       0.43410349
Se       0.00000000       0.00000000       4.11878788       0.00000000       0.00000000      -0.43410349
2
Properties=species:S:1:pos:R:3:forces:R:3 energy=-23.54246653622887 pbc="F F F"
Se       0.00000000       0.00000000       0.00000000       0.00000000       0.00000000       0.37610820
Se       0.00000000       0.00000000       4.17757576       0.00000000       0.00000000      -0.37610820
2
Properties=species:S:1:pos:R:3:forces:R:3 energy=-23.522052193047315 pbc="F F F"
Se       0.00000000       0.00000000       0.00000000       0.00000000       0.00000000       0.31848016
Se       0.00000000       0.00000000       4.23636364       0.00000000       0.00000000      -0.31848016
2
Properties=species:S:1:pos:R:3:forces:R:3 energy=-23.50500584995566 pbc="F F F"
Se       0.00000000       0.00000000       0.00000000       0.00000000       0.00000000       0.26161525
Se       0.00000000       0.00000000       4.29515152       0.00000000       0.00000000      -0.26161525
2
Properties=species:S:1:pos:R:3:forces:R:3 energy=-23.49126284162603 pbc="F F F"
Se       0.00000000       0.00000000       0.00000000       0.00000000       0.00000000       0.20626572
Se       0.00000000       0.00000000       4.35393939       0.00000000       0.00000000      -0.20626572
2
Properties=species:S:1:pos:R:3:forces:R:3 energy=-23.4807051508218 pbc="F F F"
Se       0.00000000       0.00000000       0.00000000       0.00000000       0.00000000       0.15345393
Se       0.00000000       0.00000000       4.41272727       0.00000000       0.00000000      -0.15345393
2
Properties=species:S:1:pos:R:3:forces:R:3 energy=-23.473148046661773 pbc="F F F"
Se       0.00000000       0.00000000       0.00000000       0.00000000       0.00000000       0.10432842
Se       0.00000000       0.00000000       4.47151515       0.00000000       0.00000000      -0.10432842
2
Properties=species:S:1:pos:R:3:forces:R:3 energy=-23.468343938915176 pbc="F F F"
Se       0.00000000       0.00000000       0.00000000       0.00000000       0.00000000       0.05995999
Se       0.00000000       0.00000000       4.53030303       0.00000000       0.00000000      -0.05995999
2
Properties=species:S:1:pos:R:3:forces:R:3 energy=-23.46598802877159 pbc="F F F"
Se       0.00000000       0.00000000       0.00000000       0.00000000       0.00000000       0.02119810
Se       0.00000000       0.00000000       4.58909091       0.00000000       0.00000000      -0.02119810
2
Properties=species:S:1:pos:R:3:forces:R:3 energy=-23.4657317117585 pbc="F F F"
Se       0.00000000       0.00000000       0.00000000       0.00000000       0.00000000      -0.01143945
Se       0.00000000       0.00000000       4.64787879       0.00000000       0.00000000       0.01143945
2
Properties=species:S:1:pos:R:3:forces:R:3 energy=-23.467209276266367 pbc="F F F"
Se       0.00000000       0.00000000       0.00000000       0.00000000       0.00000000      -0.03781609
Se       0.00000000       0.00000000       4.70666667       0.00000000       0.00000000       0.03781609
2
Properties=species:S:1:pos:R:3:forces:R:3 energy=-23.470060748966645 pbc="F F F"
Se       0.00000000       0.00000000       0.00000000       0.00000000       0.00000000      -0.05819923
Se       0.00000000       0.00000000       4.76545455       0.00000000       0.00000000       0.05819923
2
Properties=species:S:1:pos:R:3:forces:R:3 energy=-23.47394908470813 pbc="F F F"
Se       0.00000000       0.00000000       0.00000000       0.00000000       0.00000000      -0.07326244
Se       0.00000000       0.00000000       4.82424242       0.00000000       0.00000000       0.07326244
2
Properties=species:S:1:pos:R:3:forces:R:3 energy=-23.47859067102784 pbc="F F F"
Se       0.00000000       0.00000000       0.00000000       0.00000000       0.00000000      -0.08403219
Se       0.00000000       0.00000000       4.88303030       0.00000000       0.00000000       0.08403219
2
Properties=species:S:1:pos:R:3:forces:R:3 energy=-23.483768661772412 pbc="F F F"
Se       0.00000000       0.00000000       0.00000000       0.00000000       0.00000000      -0.09177986
Se       0.00000000       0.00000000       4.94181818       0.00000000       0.00000000       0.09177986
2
Properties=species:S:1:pos:R:3:forces:R:3 energy=-23.48934823865904 pbc="F F F"
Se       0.00000000       0.00000000       0.00000000       0.00000000       0.00000000      -0.09779707
Se       0.00000000       0.00000000       5.00060606       0.00000000       0.00000000       0.09779707
2
Properties=species:S:1:pos:R:3:forces:R:3 energy=-23.495253715568285 pbc="F F F"
Se       0.00000000       0.00000000       0.00000000       0.00000000       0.00000000      -0.10311081
Se       0.00000000       0.00000000       5.05939394       0.00000000       0.00000000       0.10311081
2
Properties=species:S:1:pos:R:3:forces:R:3 energy=-23.501466611792537 pbc="F F F"
Se       0.00000000       0.00000000       0.00000000       0.00000000       0.00000000      -0.10815072
Se       0.00000000       0.00000000       5.11818182       0.00000000       0.00000000       0.10815072
2
Properties=species:S:1:pos:R:3:forces:R:3 energy=-23.507955081720514 pbc="F F F"
Se       0.00000000       0.00000000       0.00000000       0.00000000       0.00000000      -0.11242545
Se       0.00000000       0.00000000       5.17696970       0.00000000       0.00000000       0.11242545
2
Properties=species:S:1:pos:R:3:forces:R:3 energy=-23.514637666501727 pbc="F F F"
Se       0.00000000       0.00000000       0.00000000       0.00000000       0.00000000      -0.11424512
Se       0.00000000       0.00000000       5.23575758       0.00000000       0.00000000       0.11424512
2
Properties=species:S:1:pos:R:3:forces:R:3 energy=-23.521284103998017 pbc="F F F"
Se       0.00000000       0.00000000       0.00000000       0.00000000       0.00000000      -0.11073861
Se       0.00000000       0.00000000       5.29454545       0.00000000       0.00000000       0.11073861
2
Properties=species:S:1:pos:R:3:forces:R:3 energy=-23.52750769226142 pbc="F F F"
Se       0.00000000       0.00000000       0.00000000       0.00000000       0.00000000      -0.09985299
Se       0.00000000       0.00000000       5.35333333       0.00000000       0.00000000       0.09985299
2
Properties=species:S:1:pos:R:3:forces:R:3 energy=-23.5329751010516 pbc="F F F"
Se       0.00000000       0.00000000       0.00000000       0.00000000       0.00000000      -0.08692621
Se       0.00000000       0.00000000       5.41212121       0.00000000       0.00000000       0.08692621
2
Properties=species:S:1:pos:R:3:forces:R:3 energy=-23.53799954340145 pbc="F F F"
Se       0.00000000       0.00000000       0.00000000       0.00000000       0.00000000      -0.08734506
Se       0.00000000       0.00000000       5.47090909       0.00000000       0.00000000       0.08734506
2
Properties=species:S:1:pos:R:3:forces:R:3 energy=-23.543515986024506 pbc="F F F"
Se       0.00000000       0.00000000       0.00000000       0.00000000       0.00000000      -0.10015126
Se       0.00000000       0.00000000       5.52969697       0.00000000       0.00000000       0.10015126
2
Properties=species:S:1:pos:R:3:forces:R:3 energy=-23.549442725751984 pbc="F F F"
Se       0.00000000       0.00000000       0.00000000       0.00000000       0.00000000      -0.09734035
Se       0.00000000       0.00000000       5.58848485       0.00000000       0.00000000       0.09734035
2
Properties=species:S:1:pos:R:3:forces:R:3 energy=-23.554624186496845 pbc="F F F"
Se       0.00000000       0.00000000       0.00000000       0.00000000       0.00000000      -0.07857104
Se       0.00000000       0.00000000       5.64727273       0.00000000       0.00000000       0.07857104
2
Properties=species:S:1:pos:R:3:forces:R:3 energy=-23.558972853949417 pbc="F F F"
Se       0.00000000       0.00000000       0.00000000       0.00000000       0.00000000      -0.07414654
Se       0.00000000       0.00000000       5.70606061       0.00000000       0.00000000       0.07414654
2
Properties=species:S:1:pos:R:3:forces:R:3 energy=-23.563871732474574 pbc="F F F"
Se       0.00000000       0.00000000       0.00000000       0.00000000       0.00000000      -0.09403200
Se       0.00000000       0.00000000       5.76484848       0.00000000       0.00000000       0.09403200
2
Properties=species:S:1:pos:R:3:forces:R:3 energy=-23.569702436330765 pbc="F F F"
Se       0.00000000       0.00000000       0.00000000       0.00000000       0.00000000      -0.09802171
Se       0.00000000       0.00000000       5.82363636       0.00000000       0.00000000       0.09802171
2
Properties=species:S:1:pos:R:3:forces:R:3 energy=-23.57454054499019 pbc="F F F"
Se       0.00000000       0.00000000       0.00000000       0.00000000       0.00000000      -0.06172956
Se       0.00000000       0.00000000       5.88242424       0.00000000       0.00000000       0.06172956
2
Properties=species:S:1:pos:R:3:forces:R:3 energy=-23.576791576966336 pbc="F F F"
Se       0.00000000       0.00000000       0.00000000       0.00000000       0.00000000      -0.01654228
Se       0.00000000       0.00000000       5.94121212       0.00000000       0.00000000       0.01654228
2
Properties=species:S:1:pos:R:3:forces:R:3 energy=-23.577029670926184 pbc="F F F"
Se       0.00000000       0.00000000       0.00000000       0.00000000       0.00000000       0.00220134
Se       0.00000000       0.00000000       6.00000000       0.00000000       0.00000000      -0.00220134
