2
Properties=species:S:1:pos:R:3:forces:R:3 energy=153281.39407665978 pbc="F F F"
Si       0.00000000       0.00000000       0.00000000       0.00000000       0.00000000 -144770.09375000
Si       0.00000000       0.00000000       0.18000000       0.00000000       0.00000000  144770.09375000
2
Properties=species:S:1:pos:R:3:forces:R:3 energy=139954.94095165978 pbc="F F F"
Si       0.00000000       0.00000000       0.00000000       0.00000000       0.00000000 -328994.50000000
Si       0.00000000       0.00000000       0.23878788       0.00000000       0.00000000  328994.50000000
2
Properties=species:S:1:pos:R:3:forces:R:3 energy=112805.32376416058 pbc="F F F"
Si       0.00000000       0.00000000       0.00000000       0.00000000       0.00000000 -600295.12500000
Si       0.00000000       0.00000000       0.29757576       0.00000000       0.00000000  600295.12500000
2
Properties=species:S:1:pos:R:3:forces:R:3 energy=70858.70657666058 pbc="F F F"
Si       0.00000000       0.00000000       0.00000000       0.00000000       0.00000000 -790880.56250000
Si       0.00000000       0.00000000       0.35636364       0.00000000       0.00000000  790880.56250000
2
Properties=species:S:1:pos:R:3:forces:R:3 energy=26765.522982912164 pbc="F F F"
Si       0.00000000       0.00000000       0.00000000       0.00000000       0.00000000 -636956.06250000
Si       0.00000000       0.00000000       0.41515152       0.00000000       0.00000000  636956.06250000
2
Properties=species:S:1:pos:R:3:forces:R:3 energy=1420.7256196324975 pbc="F F F"
Si       0.00000000       0.00000000       0.00000000       0.00000000       0.00000000 -139824.90625000
Si       0.00000000       0.00000000       0.47393939       0.00000000       0.00000000  139824.90625000
2
Properties=species:S:1:pos:R:3:forces:R:3 energy=-154.42072740785724 pbc="F F F"
Si       0.00000000       0.00000000       0.00000000       0.00000000       0.00000000    -487.47665405
Si       0.00000000       0.00000000       0.53272727       0.00000000       0.00000000     487.47665405
2
Properties=species:S:1:pos:R:3:forces:R:3 energy=-259.47027268960755 pbc="F F F"
Si       0.00000000       0.00000000       0.00000000       0.00000000       0.00000000     856.93670654
Si       0.00000000       0.00000000       0.59151515       0.00000000       0.00000000    -856.93670654
2
Properties=species:S:1:pos:R:3:forces:R:3 energy=-187.7261930870925 pbc="F F F"
Si       0.00000000       0.00000000       0.00000000       0.00000000       0.00000000    1452.69323730
Si       0.00000000       0.00000000       0.65030303       0.00000000       0.00000000   -1452.69323730
2
Properties=species:S:1:pos:R:3:forces:R:3 energy=-102.29367506271448 pbc="F F F"
Si       0.00000000       0.00000000       0.00000000       0.00000000       0.00000000    1278.11279297
Si       0.00000000       0.00000000       0.70909091       0.00000000       0.00000000   -1278.11279297
2
Properties=species:S:1:pos:R:3:forces:R:3 energy=-40.60443171676174 pbc="F F F"
Si       0.00000000       0.00000000       0.00000000       0.00000000       0.00000000     826.05419922
Si       0.00000000       0.00000000       0.76787879       0.00000000       0.00000000    -826.05419922
2
Properties=species:S:1:pos:R:3:forces:R:3 energy=-1.9096165143601889 pbc="F F F"
Si       0.00000000       0.00000000       0.00000000       0.00000000       0.00000000     481.11572266
Si       0.00000000       0.00000000       0.82666667       0.00000000       0.00000000    -481.11572266
2
Properties=species:S:1:pos:R:3:forces:R:3 energy=17.241355436908194 pbc="F F F"
Si       0.00000000       0.00000000       0.00000000       0.00000000       0.00000000     184.47434998
Si       0.00000000       0.00000000       0.88545455       0.00000000       0.00000000    -184.47434998
2
Properties=species:S:1:pos:R:3:forces:R:3 energy=20.851989372537048 pbc="F F F"
Si       0.00000000       0.00000000       0.00000000       0.00000000       0.00000000     -57.87968063
Si       0.00000000       0.00000000       0.94424242       0.00000000       0.00000000      57.87968063
2
Properties=species:S:1:pos:R:3:forces:R:3 energy=17.91968510900616 pbc="F F F"
Si       0.00000000       0.00000000       0.00000000       0.00000000       0.00000000     -24.91757393
Si       0.00000000       0.00000000       1.00303030       0.00000000       0.00000000      24.91757393
2
Properties=species:S:1:pos:R:3:forces:R:3 energy=15.337157152286462 pbc="F F F"
Si       0.00000000       0.00000000       0.00000000       0.00000000       0.00000000     -59.34021378
Si       0.00000000       0.00000000       1.06181818       0.00000000       0.00000000      59.34021378
2
Properties=species:S:1:pos:R:3:forces:R:3 energy=12.406190031222064 pbc="F F F"
Si       0.00000000       0.00000000       0.00000000       0.00000000       0.00000000     -36.02521133
Si       0.00000000       0.00000000       1.12060606       0.00000000       0.00000000      36.02521133
2
Properties=species:S:1:pos:R:3:forces:R:3 energy=11.441407588811018 pbc="F F F"
Si       0.00000000       0.00000000       0.00000000       0.00000000       0.00000000     -12.10367298
Si       0.00000000       0.00000000       1.17939394       0.00000000       0.00000000      12.10367298
2
Properties=species:S:1:pos:R:3:forces:R:3 energy=9.427320263437323 pbc="F F F"
Si       0.00000000       0.00000000       0.00000000       0.00000000       0.00000000     230.17462158
Si       0.00000000       0.00000000       1.23818182       0.00000000       0.00000000    -230.17462158
2
Properties=species:S:1:pos:R:3:forces:R:3 energy=24.41026424495132 pbc="F F F"
Si       0.00000000       0.00000000       0.00000000       0.00000000       0.00000000     122.53945160
Si       0.00000000       0.00000000       1.29696970       0.00000000       0.00000000    -122.53945160
2
Properties=species:S:1:pos:R:3:forces:R:3 energy=25.038381416489678 pbc="F F F"
Si       0.00000000       0.00000000       0.00000000       0.00000000       0.00000000     -78.33542633
Si       0.00000000       0.00000000       1.35575758       0.00000000       0.00000000      78.33542633
2
Properties=species:S:1:pos:R:3:forces:R:3 energy=17.32893998107432 pbc="F F F"
Si       0.00000000       0.00000000       0.00000000       0.00000000       0.00000000    -165.81018066
Si       0.00000000       0.00000000       1.41454545       0.00000000       0.00000000     165.81018066
2
Properties=species:S:1:pos:R:3:forces:R:3 energy=7.737571220943294 pbc="F F F"
Si       0.00000000       0.00000000       0.00000000       0.00000000       0.00000000    -145.12783813
Si       0.00000000       0.00000000       1.47333333       0.00000000       0.00000000     145.12783813
2
Properties=species:S:1:pos:R:3:forces:R:3 energy=1.1251321737027393 pbc="F F F"
Si       0.00000000       0.00000000       0.00000000       0.00000000       0.00000000     -80.91732788
Si       0.00000000       0.00000000       1.53212121       0.00000000       0.00000000      80.91732788
2
Properties=species:S:1:pos:R:3:forces:R:3 energy=-2.3564610931885195 pbc="F F F"
Si       0.00000000       0.00000000       0.00000000       0.00000000       0.00000000     -42.92678070
Si       0.00000000       0.00000000       1.59090909       0.00000000       0.00000000      42.92678070
2
Properties=species:S:1:pos:R:3:forces:R:3 energy=-4.398662010474613 pbc="F F F"
Si       0.00000000       0.00000000       0.00000000       0.00000000       0.00000000     -29.40573311
Si       0.00000000       0.00000000       1.64969697       0.00000000       0.00000000      29.40573311
2
Properties=species:S:1:pos:R:3:forces:R:3 energy=-6.058464496724169 pbc="F F F"
Si       0.00000000       0.00000000       0.00000000       0.00000000       0.00000000     -28.52521133
Si       0.00000000       0.00000000       1.70848485       0.00000000       0.00000000      28.52521133
2
Properties=species:S:1:pos:R:3:forces:R:3 energy=-7.847550067457161 pbc="F F F"
Si       0.00000000       0.00000000       0.00000000       0.00000000       0.00000000     -32.31320190
Si       0.00000000       0.00000000       1.76727273       0.00000000       0.00000000      32.31320190
2
Properties=species:S:1:pos:R:3:forces:R:3 energy=-9.736358129798614 pbc="F F F"
Si       0.00000000       0.00000000       0.00000000       0.00000000       0.00000000     -30.10996437
Si       0.00000000       0.00000000       1.82606061       0.00000000       0.00000000      30.10996437
2
Properties=species:S:1:pos:R:3:forces:R:3 energy=-11.18012844387387 pbc="F F F"
Si       0.00000000       0.00000000       0.00000000       0.00000000       0.00000000     -17.99729729
Si       0.00000000       0.00000000       1.88484848       0.00000000       0.00000000      17.99729729
2
Properties=species:S:1:pos:R:3:forces:R:3 energy=-11.882622592832819 pbc="F F F"
Si       0.00000000       0.00000000       0.00000000       0.00000000       0.00000000      -7.25967169
Si       0.00000000       0.00000000       1.94363636       0.00000000       0.00000000       7.25967169
2
Properties=species:S:1:pos:R:3:forces:R:3 energy=-12.191599894777633 pbc="F F F"
Si       0.00000000       0.00000000       0.00000000       0.00000000       0.00000000      -3.77102304
Si       0.00000000       0.00000000       2.00242424       0.00000000       0.00000000       3.77102304
2
Properties=species:S:1:pos:R:3:forces:R:3 energy=-12.316865015293082 pbc="F F F"
Si       0.00000000       0.00000000       0.00000000       0.00000000       0.00000000      -0.40382212
Si       0.00000000       0.00000000       2.06121212       0.00000000       0.00000000       0.40382212
2
Properties=species:S:1:pos:R:3:forces:R:3 energy=-12.257990960919233 pbc="F F F"
Si       0.00000000       0.00000000       0.00000000       0.00000000       0.00000000       2.09161448
Si       0.00000000       0.00000000       2.12000000       0.00000000       0.00000000      -2.09161448
2
Properties=species:S:1:pos:R:3:forces:R:3 energy=-12.109492991858637 pbc="F F F"
Si       0.00000000       0.00000000       0.00000000       0.00000000       0.00000000       2.67468596
Si       0.00000000       0.00000000       2.17878788       0.00000000       0.00000000      -2.67468596
2
Properties=species:S:1:pos:R:3:forces:R:3 energy=-11.967935066653919 pbc="F F F"
Si       0.00000000       0.00000000       0.00000000       0.00000000       0.00000000       2.01474619
Si       0.00000000       0.00000000       2.23757576       0.00000000       0.00000000      -2.01474619
2
Properties=species:S:1:pos:R:3:forces:R:3 energy=-11.878993343669599 pbc="F F F"
Si       0.00000000       0.00000000       0.00000000       0.00000000       0.00000000       1.01929736
Si       0.00000000       0.00000000       2.29636364       0.00000000       0.00000000      -1.01929736
2
Properties=species:S:1:pos:R:3:forces:R:3 energy=-11.841700179103821 pbc="F F F"
Si       0.00000000       0.00000000       0.00000000       0.00000000       0.00000000       0.33772743
Si       0.00000000       0.00000000       2.35515152       0.00000000       0.00000000      -0.33772743
2
Properties=species:S:1:pos:R:3:forces:R:3 energy=-11.82712504954247 pbc="F F F"
Si       0.00000000       0.00000000       0.00000000       0.00000000       0.00000000       0.26628253
Si       0.00000000       0.00000000       2.41393939       0.00000000       0.00000000      -0.26628253
2
Properties=species:S:1:pos:R:3:forces:R:3 energy=-11.798209161306831 pbc="F F F"
Si       0.00000000       0.00000000       0.00000000       0.00000000       0.00000000       0.81357110
Si       0.00000000       0.00000000       2.47272727       0.00000000       0.00000000      -0.81357110
2
Properties=species:S:1:pos:R:3:forces:R:3 energy=-11.721772586748264 pbc="F F F"
Si       0.00000000       0.00000000       0.00000000       0.00000000       0.00000000       1.84780216
Si       0.00000000       0.00000000       2.53151515       0.00000000       0.00000000      -1.84780216
2
Properties=species:S:1:pos:R:3:forces:R:3 energy=-11.578265476580079 pbc="F F F"
Si       0.00000000       0.00000000       0.00000000       0.00000000       0.00000000       3.00870419
Si       0.00000000       0.00000000       2.59030303       0.00000000       0.00000000      -3.00870419
2
Properties=species:S:1:pos:R:3:forces:R:3 energy=-11.377082384270182 pbc="F F F"
Si       0.00000000       0.00000000       0.00000000       0.00000000       0.00000000       3.71798992
Si       0.00000000       0.00000000       2.64909091       0.00000000       0.00000000      -3.71798992
2
Properties=species:S:1:pos:R:3:forces:R:3 energy=-11.156055381108823 pbc="F F F"
Si       0.00000000       0.00000000       0.00000000       0.00000000       0.00000000       3.68875933
Si       0.00000000       0.00000000       2.70787879       0.00000000       0.00000000      -3.68875933
2
Properties=species:S:1:pos:R:3:forces:R:3 energy=-10.952221919287584 pbc="F F F"
Si       0.00000000       0.00000000       0.00000000       0.00000000       0.00000000       3.21092677
Si       0.00000000       0.00000000       2.76666667       0.00000000       0.00000000      -3.21092677
2
Properties=species:S:1:pos:R:3:forces:R:3 energy=-10.7790315157301 pbc="F F F"
Si       0.00000000       0.00000000       0.00000000       0.00000000       0.00000000       2.69636321
Si       0.00000000       0.00000000       2.82545455       0.00000000       0.00000000      -2.69636321
2
Properties=species:S:1:pos:R:3:forces:R:3 energy=-10.632709417839322 pbc="F F F"
Si       0.00000000       0.00000000       0.00000000       0.00000000       0.00000000       2.30351329
Si       0.00000000       0.00000000       2.88424242       0.00000000       0.00000000      -2.30351329
2
Properties=species:S:1:pos:R:3:forces:R:3 energy=-10.505890939027084 pbc="F F F"
Si       0.00000000       0.00000000       0.00000000       0.00000000       0.00000000       2.02808809
Si       0.00000000       0.00000000       2.94303030       0.00000000       0.00000000      -2.02808809
2
Properties=species:S:1:pos:R:3:forces:R:3 energy=-10.3924841434824 pbc="F F F"
Si       0.00000000       0.00000000       0.00000000       0.00000000       0.00000000       1.84312987
Si       0.00000000       0.00000000       3.00181818       0.00000000       0.00000000      -1.84312987
2
Properties=species:S:1:pos:R:3:forces:R:3 energy=-10.287875979571439 pbc="F F F"
Si       0.00000000       0.00000000       0.00000000       0.00000000       0.00000000       1.72492051
Si       0.00000000       0.00000000       3.06060606       0.00000000       0.00000000      -1.72492051
2
Properties=species:S:1:pos:R:3:forces:R:3 energy=-10.188799910150566 pbc="F F F"
Si       0.00000000       0.00000000       0.00000000       0.00000000       0.00000000       1.65168226
Si       0.00000000       0.00000000       3.11939394       0.00000000       0.00000000      -1.65168226
2
Properties=species:S:1:pos:R:3:forces:R:3 energy=-10.09310802907393 pbc="F F F"
Si       0.00000000       0.00000000       0.00000000       0.00000000       0.00000000       1.60774529
Si       0.00000000       0.00000000       3.17818182       0.00000000       0.00000000      -1.60774529
2
Properties=species:S:1:pos:R:3:forces:R:3 energy=-9.999381063515242 pbc="F F F"
Si       0.00000000       0.00000000       0.00000000       0.00000000       0.00000000       1.58362687
Si       0.00000000       0.00000000       3.23696970       0.00000000       0.00000000      -1.58362687
2
Properties=species:S:1:pos:R:3:forces:R:3 energy=-9.906667044710625 pbc="F F F"
Si       0.00000000       0.00000000       0.00000000       0.00000000       0.00000000       1.57204962
Si       0.00000000       0.00000000       3.29575758       0.00000000       0.00000000      -1.57204962
2
Properties=species:S:1:pos:R:3:forces:R:3 energy=-9.814451065821158 pbc="F F F"
Si       0.00000000       0.00000000       0.00000000       0.00000000       0.00000000       1.56528986
Si       0.00000000       0.00000000       3.35454545       0.00000000       0.00000000      -1.56528986
2
Properties=species:S:1:pos:R:3:forces:R:3 energy=-9.722685547509304 pbc="F F F"
Si       0.00000000       0.00000000       0.00000000       0.00000000       0.00000000       1.55546880
Si       0.00000000       0.00000000       3.41333333       0.00000000       0.00000000      -1.55546880
2
Properties=species:S:1:pos:R:3:forces:R:3 energy=-9.631749625921064 pbc="F F F"
Si       0.00000000       0.00000000       0.00000000       0.00000000       0.00000000       1.53635454
Si       0.00000000       0.00000000       3.47212121       0.00000000       0.00000000      -1.53635454
2
Properties=species:S:1:pos:R:3:forces:R:3 energy=-9.542293923936041 pbc="F F F"
Si       0.00000000       0.00000000       0.00000000       0.00000000       0.00000000       1.50489080
Si       0.00000000       0.00000000       3.53090909       0.00000000       0.00000000      -1.50489080
2
Properties=species:S:1:pos:R:3:forces:R:3 energy=-9.455046128319792 pbc="F F F"
Si       0.00000000       0.00000000       0.00000000       0.00000000       0.00000000       1.46149087
Si       0.00000000       0.00000000       3.58969697       0.00000000       0.00000000      -1.46149087
2
Properties=species:S:1:pos:R:3:forces:R:3 energy=-9.37063177022832 pbc="F F F"
Si       0.00000000       0.00000000       0.00000000       0.00000000       0.00000000       1.40921164
Si       0.00000000       0.00000000       3.64848485       0.00000000       0.00000000      -1.40921164
2
Properties=species:S:1:pos:R:3:forces:R:3 energy=-9.289448401178905 pbc="F F F"
Si       0.00000000       0.00000000       0.00000000       0.00000000       0.00000000       1.35232127
Si       0.00000000       0.00000000       3.70727273       0.00000000       0.00000000      -1.35232127
2
Properties=species:S:1:pos:R:3:forces:R:3 energy=-9.211639860474618 pbc="F F F"
Si       0.00000000       0.00000000       0.00000000       0.00000000       0.00000000       1.29493928
Si       0.00000000       0.00000000       3.76606061       0.00000000       0.00000000      -1.29493928
2
Properties=species:S:1:pos:R:3:forces:R:3 energy=-9.13714398743054 pbc="F F F"
Si       0.00000000       0.00000000       0.00000000       0.00000000       0.00000000       1.24013507
Si       0.00000000       0.00000000       3.82484848       0.00000000       0.00000000      -1.24013507
2
Properties=species:S:1:pos:R:3:forces:R:3 energy=-9.06574605247806 pbc="F F F"
Si       0.00000000       0.00000000       0.00000000       0.00000000       0.00000000       1.18956149
Si       0.00000000       0.00000000       3.88363636       0.00000000       0.00000000      -1.18956149
2
Properties=species:S:1:pos:R:3:forces:R:3 energy=-8.997189380217758 pbc="F F F"
Si       0.00000000       0.00000000       0.00000000       0.00000000       0.00000000       1.14352834
Si       0.00000000       0.00000000       3.94242424       0.00000000       0.00000000      -1.14352834
2
Properties=species:S:1:pos:R:3:forces:R:3 energy=-8.931222109555215 pbc="F F F"
Si       0.00000000       0.00000000       0.00000000       0.00000000       0.00000000       1.10128212
Si       0.00000000       0.00000000       4.00121212       0.00000000       0.00000000      -1.10128212
2
Properties=species:S:1:pos:R:3:forces:R:3 energy=-8.867659166692475 pbc="F F F"
Si       0.00000000       0.00000000       0.00000000       0.00000000       0.00000000       1.06138337
Si       0.00000000       0.00000000       4.06000000       0.00000000       0.00000000      -1.06138337
2
Properties=species:S:1:pos:R:3:forces:R:3 energy=-8.806417590675517 pbc="F F F"
Si       0.00000000       0.00000000       0.00000000       0.00000000       0.00000000       1.02203488
Si       0.00000000       0.00000000       4.11878788       0.00000000       0.00000000      -1.02203488
2
Properties=species:S:1:pos:R:3:forces:R:3 energy=-8.747518419360103 pbc="F F F"
Si       0.00000000       0.00000000       0.00000000       0.00000000       0.00000000       0.98140836
Si       0.00000000       0.00000000       4.17757576       0.00000000       0.00000000      -0.98140836
2
Properties=species:S:1:pos:R:3:forces:R:3 energy=-8.691083846603798 pbc="F F F"
Si       0.00000000       0.00000000       0.00000000       0.00000000       0.00000000       0.93791330
Si       0.00000000       0.00000000       4.23636364       0.00000000       0.00000000      -0.93791330
2
Properties=species:S:1:pos:R:3:forces:R:3 energy=-8.637320062463917 pbc="F F F"
Si       0.00000000       0.00000000       0.00000000       0.00000000       0.00000000       0.89040208
Si       0.00000000       0.00000000       4.29515152       0.00000000       0.00000000      -0.89040208
2
Properties=species:S:1:pos:R:3:forces:R:3 energy=-8.586484838566195 pbc="F F F"
Si       0.00000000       0.00000000       0.00000000       0.00000000       0.00000000       0.83833373
Si       0.00000000       0.00000000       4.35393939       0.00000000       0.00000000      -0.83833373
2
Properties=species:S:1:pos:R:3:forces:R:3 energy=-8.53884268798889 pbc="F F F"
Si       0.00000000       0.00000000       0.00000000       0.00000000       0.00000000       0.78176987
Si       0.00000000       0.00000000       4.41272727       0.00000000       0.00000000      -0.78176987
2
Properties=species:S:1:pos:R:3:forces:R:3 energy=-8.494643895515203 pbc="F F F"
Si       0.00000000       0.00000000       0.00000000       0.00000000       0.00000000       0.72130996
Si       0.00000000       0.00000000       4.47151515       0.00000000       0.00000000      -0.72130996
2
Properties=species:S:1:pos:R:3:forces:R:3 energy=-8.454091148535666 pbc="F F F"
Si       0.00000000       0.00000000       0.00000000       0.00000000       0.00000000       0.65788823
Si       0.00000000       0.00000000       4.53030303       0.00000000       0.00000000      -0.65788823
2
Properties=species:S:1:pos:R:3:forces:R:3 energy=-8.417329029207641 pbc="F F F"
Si       0.00000000       0.00000000       0.00000000       0.00000000       0.00000000       0.59256977
Si       0.00000000       0.00000000       4.58909091       0.00000000       0.00000000      -0.59256977
2
Properties=species:S:1:pos:R:3:forces:R:3 energy=-8.384437333191421 pbc="F F F"
Si       0.00000000       0.00000000       0.00000000       0.00000000       0.00000000       0.52634233
Si       0.00000000       0.00000000       4.64787879       0.00000000       0.00000000      -0.52634233
2
Properties=species:S:1:pos:R:3:forces:R:3 energy=-8.355445386644305 pbc="F F F"
Si       0.00000000       0.00000000       0.00000000       0.00000000       0.00000000       0.46002886
Si       0.00000000       0.00000000       4.70666667       0.00000000       0.00000000      -0.46002886
2
Properties=species:S:1:pos:R:3:forces:R:3 energy=-8.330335833199417 pbc="F F F"
Si       0.00000000       0.00000000       0.00000000       0.00000000       0.00000000       0.39439428
Si       0.00000000       0.00000000       4.76545455       0.00000000       0.00000000      -0.39439428
2
Properties=species:S:1:pos:R:3:forces:R:3 energy=-8.309043683459217 pbc="F F F"
Si       0.00000000       0.00000000       0.00000000       0.00000000       0.00000000       0.33030862
Si       0.00000000       0.00000000       4.82424242       0.00000000       0.00000000      -0.33030862
2
Properties=species:S:1:pos:R:3:forces:R:3 energy=-8.291445812698687 pbc="F F F"
Si       0.00000000       0.00000000       0.00000000       0.00000000       0.00000000       0.26904929
Si       0.00000000       0.00000000       4.88303030       0.00000000       0.00000000      -0.26904929
2
Properties=species:S:1:pos:R:3:forces:R:3 energy=-8.277319930694965 pbc="F F F"
Si       0.00000000       0.00000000       0.00000000       0.00000000       0.00000000       0.21241929
Si       0.00000000       0.00000000       4.94181818       0.00000000       0.00000000      -0.21241929
2
Properties=species:S:1:pos:R:3:forces:R:3 energy=-8.266333134467736 pbc="F F F"
Si       0.00000000       0.00000000       0.00000000       0.00000000       0.00000000       0.16269165
Si       0.00000000       0.00000000       5.00060606       0.00000000       0.00000000      -0.16269165
2
Properties=species:S:1:pos:R:3:forces:R:3 energy=-8.258011393868916 pbc="F F F"
Si       0.00000000       0.00000000       0.00000000       0.00000000       0.00000000       0.12211663
Si       0.00000000       0.00000000       5.05939394       0.00000000       0.00000000      -0.12211663
2
Properties=species:S:1:pos:R:3:forces:R:3 energy=-8.251766209322058 pbc="F F F"
Si       0.00000000       0.00000000       0.00000000       0.00000000       0.00000000       0.09217700
Si       0.00000000       0.00000000       5.11818182       0.00000000       0.00000000      -0.09217700
2
Properties=species:S:1:pos:R:3:forces:R:3 energy=-8.2469661476915 pbc="F F F"
Si       0.00000000       0.00000000       0.00000000       0.00000000       0.00000000       0.07278931
Si       0.00000000       0.00000000       5.17696970       0.00000000       0.00000000      -0.07278931
2
Properties=species:S:1:pos:R:3:forces:R:3 energy=-8.243040784071338 pbc="F F F"
Si       0.00000000       0.00000000       0.00000000       0.00000000       0.00000000       0.06190573
Si       0.00000000       0.00000000       5.23575758       0.00000000       0.00000000      -0.06190573
2
Properties=species:S:1:pos:R:3:forces:R:3 energy=-8.23959225871374 pbc="F F F"
Si       0.00000000       0.00000000       0.00000000       0.00000000       0.00000000       0.05586541
Si       0.00000000       0.00000000       5.29454545       0.00000000       0.00000000      -0.05586541
2
Properties=species:S:1:pos:R:3:forces:R:3 energy=-8.236453456705936 pbc="F F F"
Si       0.00000000       0.00000000       0.00000000       0.00000000       0.00000000       0.05084362
Si       0.00000000       0.00000000       5.35333333       0.00000000       0.00000000      -0.05084362
2
Properties=species:S:1:pos:R:3:forces:R:3 energy=-8.233620276502904 pbc="F F F"
Si       0.00000000       0.00000000       0.00000000       0.00000000       0.00000000       0.04568933
Si       0.00000000       0.00000000       5.41212121       0.00000000       0.00000000      -0.04568933
2
Properties=species:S:1:pos:R:3:forces:R:3 energy=-8.231005592249169 pbc="F F F"
Si       0.00000000       0.00000000       0.00000000       0.00000000       0.00000000       0.04437381
Si       0.00000000       0.00000000       5.47090909       0.00000000       0.00000000      -0.04437381
2
Properties=species:S:1:pos:R:3:forces:R:3 energy=-8.228280928003151 pbc="F F F"
Si       0.00000000       0.00000000       0.00000000       0.00000000       0.00000000       0.04878742
Si       0.00000000       0.00000000       5.52969697       0.00000000       0.00000000      -0.04878742
2
Properties=species:S:1:pos:R:3:forces:R:3 energy=-8.225312286503812 pbc="F F F"
Si       0.00000000       0.00000000       0.00000000       0.00000000       0.00000000       0.05136677
Si       0.00000000       0.00000000       5.58848485       0.00000000       0.00000000      -0.05136677
2
Properties=species:S:1:pos:R:3:forces:R:3 energy=-8.222322286475702 pbc="F F F"
Si       0.00000000       0.00000000       0.00000000       0.00000000       0.00000000       0.04999683
Si       0.00000000       0.00000000       5.64727273       0.00000000       0.00000000      -0.04999683
2
Properties=species:S:1:pos:R:3:forces:R:3 energy=-8.219440961039137 pbc="F F F"
Si       0.00000000       0.00000000       0.00000000       0.00000000       0.00000000       0.04809624
Si       0.00000000       0.00000000       5.70606061       0.00000000       0.00000000      -0.04809624
2
Properties=species:S:1:pos:R:3:forces:R:3 energy=-8.216712448477555 pbc="F F F"
Si       0.00000000       0.00000000       0.00000000       0.00000000       0.00000000       0.04339728
Si       0.00000000       0.00000000       5.76484848       0.00000000       0.00000000      -0.04339728
2
Properties=species:S:1:pos:R:3:forces:R:3 energy=-8.21453083446738 pbc="F F F"
Si       0.00000000       0.00000000       0.00000000       0.00000000       0.00000000       0.02955716
Si       0.00000000       0.00000000       5.82363636       0.00000000       0.00000000      -0.02955716
2
Properties=species:S:1:pos:R:3:forces:R:3 energy=-8.213272012013118 pbc="F F F"
Si       0.00000000       0.00000000       0.00000000       0.00000000       0.00000000       0.01419100
Si       0.00000000       0.00000000       5.88242424       0.00000000       0.00000000      -0.01419100
2
Properties=species:S:1:pos:R:3:forces:R:3 energy=-8.212716730660683 pbc="F F F"
Si       0.00000000       0.00000000       0.00000000       0.00000000       0.00000000       0.00581409
Si       0.00000000       0.00000000       5.94121212       0.00000000       0.00000000      -0.00581409
2
Properties=species:S:1:pos:R:3:forces:R:3 energy=-8.212474985527972 pbc="F F F"
Si       0.00000000       0.00000000       0.00000000       0.00000000       0.00000000       0.00325424
Si       0.00000000       0.00000000       6.00000000       0.00000000       0.00000000      -0.00325424
