2
Properties=species:S:1:pos:R:3:forces:R:3 energy=3971880.464417998 pbc="F F F"
Sm       0.00000000       0.00000000       0.00000000       0.00000000       0.00000000 -542242.62500000
Sm       0.00000000       0.00000000       0.18000000       0.00000000       0.00000000  542242.62500000
2
Properties=species:S:1:pos:R:3:forces:R:3 energy=3929315.964417998 pbc="F F F"
Sm       0.00000000       0.00000000       0.00000000       0.00000000       0.00000000 -1001466.50000000
Sm       0.00000000       0.00000000       0.23878788       0.00000000       0.00000000 1001466.50000000
2
Properties=species:S:1:pos:R:3:forces:R:3 energy=3842895.214417998 pbc="F F F"
Sm       0.00000000       0.00000000       0.00000000       0.00000000       0.00000000 -2039584.12500000
Sm       0.00000000       0.00000000       0.29757576       0.00000000       0.00000000 2039584.12500000
2
Properties=species:S:1:pos:R:3:forces:R:3 energy=3678255.714417998 pbc="F F F"
Sm       0.00000000       0.00000000       0.00000000       0.00000000       0.00000000 -3648025.75000000
Sm       0.00000000       0.00000000       0.35636364       0.00000000       0.00000000 3648025.75000000
2
Properties=species:S:1:pos:R:3:forces:R:3 energy=3401517.214417998 pbc="F F F"
Sm       0.00000000       0.00000000       0.00000000       0.00000000       0.00000000 -5846215.00000000
Sm       0.00000000       0.00000000       0.41515152       0.00000000       0.00000000 5846215.00000000
2
Properties=species:S:1:pos:R:3:forces:R:3 energy=2985365.4644180015 pbc="F F F"
Sm       0.00000000       0.00000000       0.00000000       0.00000000       0.00000000 -8317319.50000000
Sm       0.00000000       0.00000000       0.47393939       0.00000000       0.00000000 8317319.50000000
2
Properties=species:S:1:pos:R:3:forces:R:3 energy=2430065.9644180015 pbc="F F F"
Sm       0.00000000       0.00000000       0.00000000       0.00000000       0.00000000 -10450271.00000000
Sm       0.00000000       0.00000000       0.53272727       0.00000000       0.00000000 10450271.00000000
2
Properties=species:S:1:pos:R:3:forces:R:3 energy=1779723.0894180047 pbc="F F F"
Sm       0.00000000       0.00000000       0.00000000       0.00000000       0.00000000 -11408856.00000000
Sm       0.00000000       0.00000000       0.59151515       0.00000000       0.00000000 11408856.00000000
2
Properties=species:S:1:pos:R:3:forces:R:3 energy=1125514.589418008 pbc="F F F"
Sm       0.00000000       0.00000000       0.00000000       0.00000000       0.00000000 -10512162.00000000
Sm       0.00000000       0.00000000       0.65030303       0.00000000       0.00000000 10512162.00000000
2
Properties=species:S:1:pos:R:3:forces:R:3 energy=579981.9019180174 pbc="F F F"
Sm       0.00000000       0.00000000       0.00000000       0.00000000       0.00000000 -7803734.00000000
Sm       0.00000000       0.00000000       0.70909091       0.00000000       0.00000000 7803734.00000000
2
Properties=species:S:1:pos:R:3:forces:R:3 energy=223220.90191802694 pbc="F F F"
Sm       0.00000000       0.00000000       0.00000000       0.00000000       0.00000000 -4334916.50000000
Sm       0.00000000       0.00000000       0.76787879       0.00000000       0.00000000 4334916.50000000
2
Properties=species:S:1:pos:R:3:forces:R:3 energy=53440.00348054278 pbc="F F F"
Sm       0.00000000       0.00000000       0.00000000       0.00000000       0.00000000 -1578101.12500000
Sm       0.00000000       0.00000000       0.82666667       0.00000000       0.00000000 1578101.12500000
2
Properties=species:S:1:pos:R:3:forces:R:3 energy=6787.48346103687 pbc="F F F"
Sm       0.00000000       0.00000000       0.00000000       0.00000000       0.00000000 -283386.31250000
Sm       0.00000000       0.00000000       0.88545455       0.00000000       0.00000000  283386.31250000
2
Properties=species:S:1:pos:R:3:forces:R:3 energy=194.87356727288764 pbc="F F F"
Sm       0.00000000       0.00000000       0.00000000       0.00000000       0.00000000  -22437.05468750
Sm       0.00000000       0.00000000       0.94424242       0.00000000       0.00000000   22437.05468750
2
Properties=species:S:1:pos:R:3:forces:R:3 energy=-67.10781695693876 pbc="F F F"
Sm       0.00000000       0.00000000       0.00000000       0.00000000       0.00000000      87.81040192
Sm       0.00000000       0.00000000       1.00303030       0.00000000       0.00000000     -87.81040192
2
Properties=species:S:1:pos:R:3:forces:R:3 energy=-68.44464703591031 pbc="F F F"
Sm       0.00000000       0.00000000       0.00000000       0.00000000       0.00000000      15.07374763
Sm       0.00000000       0.00000000       1.06181818       0.00000000       0.00000000     -15.07374763
2
Properties=species:S:1:pos:R:3:forces:R:3 energy=-67.91293156048052 pbc="F F F"
Sm       0.00000000       0.00000000       0.00000000       0.00000000       0.00000000       9.94274807
Sm       0.00000000       0.00000000       1.12060606       0.00000000       0.00000000      -9.94274807
2
Properties=species:S:1:pos:R:3:forces:R:3 energy=-67.18233300623535 pbc="F F F"
Sm       0.00000000       0.00000000       0.00000000       0.00000000       0.00000000      14.51868153
Sm       0.00000000       0.00000000       1.17939394       0.00000000       0.00000000     -14.51868153
2
Properties=species:S:1:pos:R:3:forces:R:3 energy=-66.27348887587839 pbc="F F F"
Sm       0.00000000       0.00000000       0.00000000       0.00000000       0.00000000      15.87645817
Sm       0.00000000       0.00000000       1.23818182       0.00000000       0.00000000     -15.87645817
2
Properties=species:S:1:pos:R:3:forces:R:3 energy=-65.35928124315207 pbc="F F F"
Sm       0.00000000       0.00000000       0.00000000       0.00000000       0.00000000      15.00484848
Sm       0.00000000       0.00000000       1.29696970       0.00000000       0.00000000     -15.00484848
2
Properties=species:S:1:pos:R:3:forces:R:3 energy=-64.52842470133015 pbc="F F F"
Sm       0.00000000       0.00000000       0.00000000       0.00000000       0.00000000      13.08193588
Sm       0.00000000       0.00000000       1.35575758       0.00000000       0.00000000     -13.08193588
2
Properties=species:S:1:pos:R:3:forces:R:3 energy=-63.845250292428844 pbc="F F F"
Sm       0.00000000       0.00000000       0.00000000       0.00000000       0.00000000       9.97291183
Sm       0.00000000       0.00000000       1.41454545       0.00000000       0.00000000      -9.97291183
2
Properties=species:S:1:pos:R:3:forces:R:3 energy=-63.37092668393462 pbc="F F F"
Sm       0.00000000       0.00000000       0.00000000       0.00000000       0.00000000       6.09146786
Sm       0.00000000       0.00000000       1.47333333       0.00000000       0.00000000      -6.09146786
2
Properties=species:S:1:pos:R:3:forces:R:3 energy=-63.13411749209445 pbc="F F F"
Sm       0.00000000       0.00000000       0.00000000       0.00000000       0.00000000       1.93586004
Sm       0.00000000       0.00000000       1.53212121       0.00000000       0.00000000      -1.93586004
2
Properties=species:S:1:pos:R:3:forces:R:3 energy=-63.14548478309447 pbc="F F F"
Sm       0.00000000       0.00000000       0.00000000       0.00000000       0.00000000      -2.32513332
Sm       0.00000000       0.00000000       1.59090909       0.00000000       0.00000000       2.32513332
2
Properties=species:S:1:pos:R:3:forces:R:3 energy=-63.4046966687691 pbc="F F F"
Sm       0.00000000       0.00000000       0.00000000       0.00000000       0.00000000      -6.43536139
Sm       0.00000000       0.00000000       1.64969697       0.00000000       0.00000000       6.43536139
2
Properties=species:S:1:pos:R:3:forces:R:3 energy=-63.889860579336165 pbc="F F F"
Sm       0.00000000       0.00000000       0.00000000       0.00000000       0.00000000      -9.91327286
Sm       0.00000000       0.00000000       1.70848485       0.00000000       0.00000000       9.91327286
2
Properties=species:S:1:pos:R:3:forces:R:3 energy=-64.5458693759217 pbc="F F F"
Sm       0.00000000       0.00000000       0.00000000       0.00000000       0.00000000     -12.15953350
Sm       0.00000000       0.00000000       1.76727273       0.00000000       0.00000000      12.15953350
2
Properties=species:S:1:pos:R:3:forces:R:3 energy=-65.29003947945417 pbc="F F F"
Sm       0.00000000       0.00000000       0.00000000       0.00000000       0.00000000     -12.92429543
Sm       0.00000000       0.00000000       1.82606061       0.00000000       0.00000000      12.92429543
2
Properties=species:S:1:pos:R:3:forces:R:3 energy=-66.04297557040152 pbc="F F F"
Sm       0.00000000       0.00000000       0.00000000       0.00000000       0.00000000     -12.54672337
Sm       0.00000000       0.00000000       1.88484848       0.00000000       0.00000000      12.54672337
2
Properties=species:S:1:pos:R:3:forces:R:3 energy=-66.75314106019479 pbc="F F F"
Sm       0.00000000       0.00000000       0.00000000       0.00000000       0.00000000     -11.54499245
Sm       0.00000000       0.00000000       1.94363636       0.00000000       0.00000000      11.54499245
2
Properties=species:S:1:pos:R:3:forces:R:3 energy=-67.39541232413215 pbc="F F F"
Sm       0.00000000       0.00000000       0.00000000       0.00000000       0.00000000     -10.28590202
Sm       0.00000000       0.00000000       2.00242424       0.00000000       0.00000000      10.28590202
2
Properties=species:S:1:pos:R:3:forces:R:3 energy=-67.96222859738711 pbc="F F F"
Sm       0.00000000       0.00000000       0.00000000       0.00000000       0.00000000      -9.00797558
Sm       0.00000000       0.00000000       2.06121212       0.00000000       0.00000000       9.00797558
2
Properties=species:S:1:pos:R:3:forces:R:3 energy=-68.45640509169564 pbc="F F F"
Sm       0.00000000       0.00000000       0.00000000       0.00000000       0.00000000      -7.82250547
Sm       0.00000000       0.00000000       2.12000000       0.00000000       0.00000000       7.82250547
2
Properties=species:S:1:pos:R:3:forces:R:3 energy=-68.88406054345795 pbc="F F F"
Sm       0.00000000       0.00000000       0.00000000       0.00000000       0.00000000      -6.74273586
Sm       0.00000000       0.00000000       2.17878788       0.00000000       0.00000000       6.74273586
2
Properties=species:S:1:pos:R:3:forces:R:3 energy=-69.25071095106713 pbc="F F F"
Sm       0.00000000       0.00000000       0.00000000       0.00000000       0.00000000      -5.73990870
Sm       0.00000000       0.00000000       2.23757576       0.00000000       0.00000000       5.73990870
2
Properties=species:S:1:pos:R:3:forces:R:3 energy=-69.55959876918514 pbc="F F F"
Sm       0.00000000       0.00000000       0.00000000       0.00000000       0.00000000      -4.77179527
Sm       0.00000000       0.00000000       2.29636364       0.00000000       0.00000000       4.77179527
2
Properties=species:S:1:pos:R:3:forces:R:3 energy=-69.81192175890038 pbc="F F F"
Sm       0.00000000       0.00000000       0.00000000       0.00000000       0.00000000      -3.81319952
Sm       0.00000000       0.00000000       2.35515152       0.00000000       0.00000000       3.81319952
2
Properties=species:S:1:pos:R:3:forces:R:3 energy=-70.0081681381064 pbc="F F F"
Sm       0.00000000       0.00000000       0.00000000       0.00000000       0.00000000      -2.86688447
Sm       0.00000000       0.00000000       2.41393939       0.00000000       0.00000000       2.86688447
2
Properties=species:S:1:pos:R:3:forces:R:3 energy=-70.14975691399742 pbc="F F F"
Sm       0.00000000       0.00000000       0.00000000       0.00000000       0.00000000      -1.96008837
Sm       0.00000000       0.00000000       2.47272727       0.00000000       0.00000000       1.96008837
2
Properties=species:S:1:pos:R:3:forces:R:3 energy=-70.2403653882132 pbc="F F F"
Sm       0.00000000       0.00000000       0.00000000       0.00000000       0.00000000      -1.14235151
Sm       0.00000000       0.00000000       2.53151515       0.00000000       0.00000000       1.14235151
2
Properties=species:S:1:pos:R:3:forces:R:3 energy=-70.28701253719827 pbc="F F F"
Sm       0.00000000       0.00000000       0.00000000       0.00000000       0.00000000      -0.47433990
Sm       0.00000000       0.00000000       2.59030303       0.00000000       0.00000000       0.47433990
2
Properties=species:S:1:pos:R:3:forces:R:3 energy=-70.2999674182857 pbc="F F F"
Sm       0.00000000       0.00000000       0.00000000       0.00000000       0.00000000      -0.00043056
Sm       0.00000000       0.00000000       2.64909091       0.00000000       0.00000000       0.00043056
2
Properties=species:S:1:pos:R:3:forces:R:3 energy=-70.29093346566566 pbc="F F F"
Sm       0.00000000       0.00000000       0.00000000       0.00000000       0.00000000       0.27772787
Sm       0.00000000       0.00000000       2.70787879       0.00000000       0.00000000      -0.27772787
2
Properties=species:S:1:pos:R:3:forces:R:3 energy=-70.27031707527625 pbc="F F F"
Sm       0.00000000       0.00000000       0.00000000       0.00000000       0.00000000       0.40327290
Sm       0.00000000       0.00000000       2.76666667       0.00000000       0.00000000      -0.40327290
2
Properties=species:S:1:pos:R:3:forces:R:3 energy=-70.2452516137948 pbc="F F F"
Sm       0.00000000       0.00000000       0.00000000       0.00000000       0.00000000       0.43985200
Sm       0.00000000       0.00000000       2.82545455       0.00000000       0.00000000      -0.43985200
2
Properties=species:S:1:pos:R:3:forces:R:3 energy=-70.21924651400667 pbc="F F F"
Sm       0.00000000       0.00000000       0.00000000       0.00000000       0.00000000       0.44288719
Sm       0.00000000       0.00000000       2.88424242       0.00000000       0.00000000      -0.44288719
2
Properties=species:S:1:pos:R:3:forces:R:3 energy=-70.19315613188299 pbc="F F F"
Sm       0.00000000       0.00000000       0.00000000       0.00000000       0.00000000       0.44658086
Sm       0.00000000       0.00000000       2.94303030       0.00000000       0.00000000      -0.44658086
2
Properties=species:S:1:pos:R:3:forces:R:3 energy=-70.16640052890126 pbc="F F F"
Sm       0.00000000       0.00000000       0.00000000       0.00000000       0.00000000       0.46720183
Sm       0.00000000       0.00000000       3.00181818       0.00000000       0.00000000      -0.46720183
2
Properties=species:S:1:pos:R:3:forces:R:3 energy=-70.13775886888794 pbc="F F F"
Sm       0.00000000       0.00000000       0.00000000       0.00000000       0.00000000       0.51143545
Sm       0.00000000       0.00000000       3.06060606       0.00000000       0.00000000      -0.51143545
2
Properties=species:S:1:pos:R:3:forces:R:3 energy=-70.1057585203074 pbc="F F F"
Sm       0.00000000       0.00000000       0.00000000       0.00000000       0.00000000       0.58179080
Sm       0.00000000       0.00000000       3.11939394       0.00000000       0.00000000      -0.58179080
2
Properties=species:S:1:pos:R:3:forces:R:3 energy=-70.06885057985346 pbc="F F F"
Sm       0.00000000       0.00000000       0.00000000       0.00000000       0.00000000       0.67781055
Sm       0.00000000       0.00000000       3.17818182       0.00000000       0.00000000      -0.67781055
2
Properties=species:S:1:pos:R:3:forces:R:3 energy=-70.02565395922136 pbc="F F F"
Sm       0.00000000       0.00000000       0.00000000       0.00000000       0.00000000       0.79452425
Sm       0.00000000       0.00000000       3.23696970       0.00000000       0.00000000      -0.79452425
2
Properties=species:S:1:pos:R:3:forces:R:3 energy=-69.97525295683715 pbc="F F F"
Sm       0.00000000       0.00000000       0.00000000       0.00000000       0.00000000       0.92013907
Sm       0.00000000       0.00000000       3.29575758       0.00000000       0.00000000      -0.92013907
2
Properties=species:S:1:pos:R:3:forces:R:3 energy=-69.91766265092402 pbc="F F F"
Sm       0.00000000       0.00000000       0.00000000       0.00000000       0.00000000       1.03566802
Sm       0.00000000       0.00000000       3.35454545       0.00000000       0.00000000      -1.03566802
2
Properties=species:S:1:pos:R:3:forces:R:3 energy=-69.8541187974876 pbc="F F F"
Sm       0.00000000       0.00000000       0.00000000       0.00000000       0.00000000       1.11909282
Sm       0.00000000       0.00000000       3.41333333       0.00000000       0.00000000      -1.11909282
2
Properties=species:S:1:pos:R:3:forces:R:3 energy=-69.78705496113928 pbc="F F F"
Sm       0.00000000       0.00000000       0.00000000       0.00000000       0.00000000       1.15342271
Sm       0.00000000       0.00000000       3.47212121       0.00000000       0.00000000      -1.15342271
2
Properties=species:S:1:pos:R:3:forces:R:3 energy=-69.71955318918648 pbc="F F F"
Sm       0.00000000       0.00000000       0.00000000       0.00000000       0.00000000       1.13462842
Sm       0.00000000       0.00000000       3.53090909       0.00000000       0.00000000      -1.13462842
2
Properties=species:S:1:pos:R:3:forces:R:3 energy=-69.65446663442941 pbc="F F F"
Sm       0.00000000       0.00000000       0.00000000       0.00000000       0.00000000       1.07446778
Sm       0.00000000       0.00000000       3.58969697       0.00000000       0.00000000      -1.07446778
2
Properties=species:S:1:pos:R:3:forces:R:3 energy=-69.59357270187154 pbc="F F F"
Sm       0.00000000       0.00000000       0.00000000       0.00000000       0.00000000       0.99630958
Sm       0.00000000       0.00000000       3.64848485       0.00000000       0.00000000      -0.99630958
2
Properties=species:S:1:pos:R:3:forces:R:3 energy=-69.5371686686347 pbc="F F F"
Sm       0.00000000       0.00000000       0.00000000       0.00000000       0.00000000       0.92578942
Sm       0.00000000       0.00000000       3.70727273       0.00000000       0.00000000      -0.92578942
2
Properties=species:S:1:pos:R:3:forces:R:3 energy=-69.48421668046907 pbc="F F F"
Sm       0.00000000       0.00000000       0.00000000       0.00000000       0.00000000       0.88087094
Sm       0.00000000       0.00000000       3.76606061       0.00000000       0.00000000      -0.88087094
2
Properties=species:S:1:pos:R:3:forces:R:3 energy=-69.43299984166894 pbc="F F F"
Sm       0.00000000       0.00000000       0.00000000       0.00000000       0.00000000       0.86644018
Sm       0.00000000       0.00000000       3.82484848       0.00000000       0.00000000      -0.86644018
2
Properties=species:S:1:pos:R:3:forces:R:3 energy=-69.38186990524026 pbc="F F F"
Sm       0.00000000       0.00000000       0.00000000       0.00000000       0.00000000       0.87576705
Sm       0.00000000       0.00000000       3.88363636       0.00000000       0.00000000      -0.87576705
2
Properties=species:S:1:pos:R:3:forces:R:3 energy=-69.3297966114817 pbc="F F F"
Sm       0.00000000       0.00000000       0.00000000       0.00000000       0.00000000       0.89674038
Sm       0.00000000       0.00000000       3.94242424       0.00000000       0.00000000      -0.89674038
2
Properties=species:S:1:pos:R:3:forces:R:3 energy=-69.27643630818582 pbc="F F F"
Sm       0.00000000       0.00000000       0.00000000       0.00000000       0.00000000       0.91797817
Sm       0.00000000       0.00000000       4.00121212       0.00000000       0.00000000      -0.91797817
2
Properties=species:S:1:pos:R:3:forces:R:3 energy=-69.22201754139942 pbc="F F F"
Sm       0.00000000       0.00000000       0.00000000       0.00000000       0.00000000       0.93184704
Sm       0.00000000       0.00000000       4.06000000       0.00000000       0.00000000      -0.93184704
2
Properties=species:S:1:pos:R:3:forces:R:3 energy=-69.16708928540399 pbc="F F F"
Sm       0.00000000       0.00000000       0.00000000       0.00000000       0.00000000       0.93469834
Sm       0.00000000       0.00000000       4.11878788       0.00000000       0.00000000      -0.93469834
2
Properties=species:S:1:pos:R:3:forces:R:3 energy=-69.1123454539701 pbc="F F F"
Sm       0.00000000       0.00000000       0.00000000       0.00000000       0.00000000       0.92583615
Sm       0.00000000       0.00000000       4.17757576       0.00000000       0.00000000      -0.92583615
2
Properties=species:S:1:pos:R:3:forces:R:3 energy=-69.05844943061898 pbc="F F F"
Sm       0.00000000       0.00000000       0.00000000       0.00000000       0.00000000       0.90619862
Sm       0.00000000       0.00000000       4.23636364       0.00000000       0.00000000      -0.90619862
2
Properties=species:S:1:pos:R:3:forces:R:3 energy=-69.005980675532 pbc="F F F"
Sm       0.00000000       0.00000000       0.00000000       0.00000000       0.00000000       0.87715101
Sm       0.00000000       0.00000000       4.29515152       0.00000000       0.00000000      -0.87715101
2
Properties=species:S:1:pos:R:3:forces:R:3 energy=-68.95548047657527 pbc="F F F"
Sm       0.00000000       0.00000000       0.00000000       0.00000000       0.00000000       0.83964062
Sm       0.00000000       0.00000000       4.35393939       0.00000000       0.00000000      -0.83964062
2
Properties=species:S:1:pos:R:3:forces:R:3 energy=-68.90742146973544 pbc="F F F"
Sm       0.00000000       0.00000000       0.00000000       0.00000000       0.00000000       0.79401553
Sm       0.00000000       0.00000000       4.41272727       0.00000000       0.00000000      -0.79401553
2
Properties=species:S:1:pos:R:3:forces:R:3 energy=-68.86227625298527 pbc="F F F"
Sm       0.00000000       0.00000000       0.00000000       0.00000000       0.00000000       0.74049908
Sm       0.00000000       0.00000000       4.47151515       0.00000000       0.00000000      -0.74049908
2
Properties=species:S:1:pos:R:3:forces:R:3 energy=-68.82049456779215 pbc="F F F"
Sm       0.00000000       0.00000000       0.00000000       0.00000000       0.00000000       0.67991817
Sm       0.00000000       0.00000000       4.53030303       0.00000000       0.00000000      -0.67991817
2
Properties=species:S:1:pos:R:3:forces:R:3 energy=-68.7824345712109 pbc="F F F"
Sm       0.00000000       0.00000000       0.00000000       0.00000000       0.00000000       0.61427462
Sm       0.00000000       0.00000000       4.58909091       0.00000000       0.00000000      -0.61427462
2
Properties=species:S:1:pos:R:3:forces:R:3 energy=-68.74830946813586 pbc="F F F"
Sm       0.00000000       0.00000000       0.00000000       0.00000000       0.00000000       0.54674709
Sm       0.00000000       0.00000000       4.64787879       0.00000000       0.00000000      -0.54674709
2
Properties=species:S:1:pos:R:3:forces:R:3 energy=-68.7181188404145 pbc="F F F"
Sm       0.00000000       0.00000000       0.00000000       0.00000000       0.00000000       0.48102432
Sm       0.00000000       0.00000000       4.70666667       0.00000000       0.00000000      -0.48102432
2
Properties=species:S:1:pos:R:3:forces:R:3 energy=-68.6916562794098 pbc="F F F"
Sm       0.00000000       0.00000000       0.00000000       0.00000000       0.00000000       0.42035350
Sm       0.00000000       0.00000000       4.76545455       0.00000000       0.00000000      -0.42035350
2
Properties=species:S:1:pos:R:3:forces:R:3 energy=-68.66855516236735 pbc="F F F"
Sm       0.00000000       0.00000000       0.00000000       0.00000000       0.00000000       0.36662760
Sm       0.00000000       0.00000000       4.82424242       0.00000000       0.00000000      -0.36662760
2
Properties=species:S:1:pos:R:3:forces:R:3 energy=-68.6484031028369 pbc="F F F"
Sm       0.00000000       0.00000000       0.00000000       0.00000000       0.00000000       0.32012969
Sm       0.00000000       0.00000000       4.88303030       0.00000000       0.00000000      -0.32012969
2
Properties=species:S:1:pos:R:3:forces:R:3 energy=-68.63079535009832 pbc="F F F"
Sm       0.00000000       0.00000000       0.00000000       0.00000000       0.00000000       0.27991542
Sm       0.00000000       0.00000000       4.94181818       0.00000000       0.00000000      -0.27991542
2
Properties=species:S:1:pos:R:3:forces:R:3 energy=-68.61539582748578 pbc="F F F"
Sm       0.00000000       0.00000000       0.00000000       0.00000000       0.00000000       0.24473707
Sm       0.00000000       0.00000000       5.00060606       0.00000000       0.00000000      -0.24473707
2
Properties=species:S:1:pos:R:3:forces:R:3 energy=-68.6019295283357 pbc="F F F"
Sm       0.00000000       0.00000000       0.00000000       0.00000000       0.00000000       0.21409461
Sm       0.00000000       0.00000000       5.05939394       0.00000000       0.00000000      -0.21409461
2
Properties=species:S:1:pos:R:3:forces:R:3 energy=-68.59011382609347 pbc="F F F"
Sm       0.00000000       0.00000000       0.00000000       0.00000000       0.00000000       0.18896799
Sm       0.00000000       0.00000000       5.11818182       0.00000000       0.00000000      -0.18896799
2
Properties=species:S:1:pos:R:3:forces:R:3 energy=-68.57955930485576 pbc="F F F"
Sm       0.00000000       0.00000000       0.00000000       0.00000000       0.00000000       0.17178290
Sm       0.00000000       0.00000000       5.17696970       0.00000000       0.00000000      -0.17178290
2
Properties=species:S:1:pos:R:3:forces:R:3 energy=-68.56971637578364 pbc="F F F"
Sm       0.00000000       0.00000000       0.00000000       0.00000000       0.00000000       0.16493343
Sm       0.00000000       0.00000000       5.23575758       0.00000000       0.00000000      -0.16493343
2
Properties=species:S:1:pos:R:3:forces:R:3 energy=-68.55997442755319 pbc="F F F"
Sm       0.00000000       0.00000000       0.00000000       0.00000000       0.00000000       0.16779910
Sm       0.00000000       0.00000000       5.29454545       0.00000000       0.00000000      -0.16779910
2
Properties=species:S:1:pos:R:3:forces:R:3 energy=-68.54990602716913 pbc="F F F"
Sm       0.00000000       0.00000000       0.00000000       0.00000000       0.00000000       0.17478874
Sm       0.00000000       0.00000000       5.35333333       0.00000000       0.00000000      -0.17478874
2
Properties=species:S:1:pos:R:3:forces:R:3 energy=-68.53944233268265 pbc="F F F"
Sm       0.00000000       0.00000000       0.00000000       0.00000000       0.00000000       0.18113799
Sm       0.00000000       0.00000000       5.41212121       0.00000000       0.00000000      -0.18113799
2
Properties=species:S:1:pos:R:3:forces:R:3 energy=-68.52849931304797 pbc="F F F"
Sm       0.00000000       0.00000000       0.00000000       0.00000000       0.00000000       0.19300672
Sm       0.00000000       0.00000000       5.47090909       0.00000000       0.00000000      -0.19300672
2
Properties=species:S:1:pos:R:3:forces:R:3 energy=-68.5165809942641 pbc="F F F"
Sm       0.00000000       0.00000000       0.00000000       0.00000000       0.00000000       0.21205723
Sm       0.00000000       0.00000000       5.52969697       0.00000000       0.00000000      -0.21205723
2
Properties=species:S:1:pos:R:3:forces:R:3 energy=-68.5038704691285 pbc="F F F"
Sm       0.00000000       0.00000000       0.00000000       0.00000000       0.00000000       0.21594204
Sm       0.00000000       0.00000000       5.58848485       0.00000000       0.00000000      -0.21594204
2
Properties=species:S:1:pos:R:3:forces:R:3 energy=-68.49164953294323 pbc="F F F"
Sm       0.00000000       0.00000000       0.00000000       0.00000000       0.00000000       0.19806254
Sm       0.00000000       0.00000000       5.64727273       0.00000000       0.00000000      -0.19806254
2
Properties=species:S:1:pos:R:3:forces:R:3 energy=-68.48039895794099 pbc="F F F"
Sm       0.00000000       0.00000000       0.00000000       0.00000000       0.00000000       0.18963332
Sm       0.00000000       0.00000000       5.70606061       0.00000000       0.00000000      -0.18963332
2
Properties=species:S:1:pos:R:3:forces:R:3 energy=-68.46876088295761 pbc="F F F"
Sm       0.00000000       0.00000000       0.00000000       0.00000000       0.00000000       0.20739593
Sm       0.00000000       0.00000000       5.76484848       0.00000000       0.00000000      -0.20739593
2
Properties=species:S:1:pos:R:3:forces:R:3 energy=-68.45652195104329 pbc="F F F"
Sm       0.00000000       0.00000000       0.00000000       0.00000000       0.00000000       0.19964094
Sm       0.00000000       0.00000000       5.82363636       0.00000000       0.00000000      -0.19964094
2
Properties=species:S:1:pos:R:3:forces:R:3 energy=-68.4466503166207 pbc="F F F"
Sm       0.00000000       0.00000000       0.00000000       0.00000000       0.00000000       0.12838803
Sm       0.00000000       0.00000000       5.88242424       0.00000000       0.00000000      -0.12838803
2
Properties=species:S:1:pos:R:3:forces:R:3 energy=-68.44170221966779 pbc="F F F"
Sm       0.00000000       0.00000000       0.00000000       0.00000000       0.00000000       0.04308971
Sm       0.00000000       0.00000000       5.94121212       0.00000000       0.00000000      -0.04308971
2
Properties=species:S:1:pos:R:3:forces:R:3 energy=-68.44055660802611 pbc="F F F"
Sm       0.00000000       0.00000000       0.00000000       0.00000000       0.00000000       0.00764855
Sm       0.00000000       0.00000000       6.00000000       0.00000000       0.00000000      -0.00764855
