2
Properties=species:S:1:pos:R:3:forces:R:3 energy=3971894.714417998 pbc="F F F"
Sm       0.00000000       0.00000000       0.00000000       0.00000000       0.00000000 -542243.56250000
Sm       0.00000000       0.00000000       0.18000000       0.00000000       0.00000000  542243.56250000
2
Properties=species:S:1:pos:R:3:forces:R:3 energy=3929317.714417998 pbc="F F F"
Sm       0.00000000       0.00000000       0.00000000       0.00000000       0.00000000 -1001467.56250000
Sm       0.00000000       0.00000000       0.23878788       0.00000000       0.00000000 1001467.56250000
2
Properties=species:S:1:pos:R:3:forces:R:3 energy=3842865.214417998 pbc="F F F"
Sm       0.00000000       0.00000000       0.00000000       0.00000000       0.00000000 -2039569.75000000
Sm       0.00000000       0.00000000       0.29757576       0.00000000       0.00000000 2039569.75000000
2
Properties=species:S:1:pos:R:3:forces:R:3 energy=3678229.214417998 pbc="F F F"
Sm       0.00000000       0.00000000       0.00000000       0.00000000       0.00000000 -3648001.50000000
Sm       0.00000000       0.00000000       0.35636364       0.00000000       0.00000000 3648001.50000000
2
Properties=species:S:1:pos:R:3:forces:R:3 energy=3401509.464417998 pbc="F F F"
Sm       0.00000000       0.00000000       0.00000000       0.00000000       0.00000000 -5846204.00000000
Sm       0.00000000       0.00000000       0.41515152       0.00000000       0.00000000 5846204.00000000
2
Properties=species:S:1:pos:R:3:forces:R:3 energy=2985378.7144180015 pbc="F F F"
Sm       0.00000000       0.00000000       0.00000000       0.00000000       0.00000000 -8317335.50000000
Sm       0.00000000       0.00000000       0.47393939       0.00000000       0.00000000 8317335.50000000
2
Properties=species:S:1:pos:R:3:forces:R:3 energy=2430065.9644180015 pbc="F F F"
Sm       0.00000000       0.00000000       0.00000000       0.00000000       0.00000000 -10450264.00000000
Sm       0.00000000       0.00000000       0.53272727       0.00000000       0.00000000 10450264.00000000
2
Properties=species:S:1:pos:R:3:forces:R:3 energy=1779738.3394180047 pbc="F F F"
Sm       0.00000000       0.00000000       0.00000000       0.00000000       0.00000000 -11408932.00000000
Sm       0.00000000       0.00000000       0.59151515       0.00000000       0.00000000 11408932.00000000
2
Properties=species:S:1:pos:R:3:forces:R:3 energy=1125521.964418008 pbc="F F F"
Sm       0.00000000       0.00000000       0.00000000       0.00000000       0.00000000 -10512226.00000000
Sm       0.00000000       0.00000000       0.65030303       0.00000000       0.00000000 10512226.00000000
2
Properties=species:S:1:pos:R:3:forces:R:3 energy=579985.0894180174 pbc="F F F"
Sm       0.00000000       0.00000000       0.00000000       0.00000000       0.00000000 -7803778.50000000
Sm       0.00000000       0.00000000       0.70909091       0.00000000       0.00000000 7803778.50000000
2
Properties=species:S:1:pos:R:3:forces:R:3 energy=223220.76129302694 pbc="F F F"
Sm       0.00000000       0.00000000       0.00000000       0.00000000       0.00000000 -4334916.50000000
Sm       0.00000000       0.00000000       0.76787879       0.00000000       0.00000000 4334916.50000000
2
Properties=species:S:1:pos:R:3:forces:R:3 energy=53438.33551179278 pbc="F F F"
Sm       0.00000000       0.00000000       0.00000000       0.00000000       0.00000000 -1578053.62500000
Sm       0.00000000       0.00000000       0.82666667       0.00000000       0.00000000 1578053.62500000
2
Properties=species:S:1:pos:R:3:forces:R:3 energy=6787.49420322437 pbc="F F F"
Sm       0.00000000       0.00000000       0.00000000       0.00000000       0.00000000 -283387.06250000
Sm       0.00000000       0.00000000       0.88545455       0.00000000       0.00000000  283387.06250000
2
Properties=species:S:1:pos:R:3:forces:R:3 energy=194.87146155999702 pbc="F F F"
Sm       0.00000000       0.00000000       0.00000000       0.00000000       0.00000000  -22436.94726562
Sm       0.00000000       0.00000000       0.94424242       0.00000000       0.00000000   22436.94726562
2
Properties=species:S:1:pos:R:3:forces:R:3 energy=-67.1078016981497 pbc="F F F"
Sm       0.00000000       0.00000000       0.00000000       0.00000000       0.00000000      87.80994415
Sm       0.00000000       0.00000000       1.00303030       0.00000000       0.00000000     -87.80994415
2
Properties=species:S:1:pos:R:3:forces:R:3 energy=-68.44463177712124 pbc="F F F"
Sm       0.00000000       0.00000000       0.00000000       0.00000000       0.00000000      15.07378101
Sm       0.00000000       0.00000000       1.06181818       0.00000000       0.00000000     -15.07378101
2
Properties=species:S:1:pos:R:3:forces:R:3 energy=-67.91292393108598 pbc="F F F"
Sm       0.00000000       0.00000000       0.00000000       0.00000000       0.00000000       9.94273376
Sm       0.00000000       0.00000000       1.12060606       0.00000000       0.00000000      -9.94273376
2
Properties=species:S:1:pos:R:3:forces:R:3 energy=-67.18234063562988 pbc="F F F"
Sm       0.00000000       0.00000000       0.00000000       0.00000000       0.00000000      14.51869583
Sm       0.00000000       0.00000000       1.17939394       0.00000000       0.00000000     -14.51869583
2
Properties=species:S:1:pos:R:3:forces:R:3 energy=-66.27349650527292 pbc="F F F"
Sm       0.00000000       0.00000000       0.00000000       0.00000000       0.00000000      15.87647152
Sm       0.00000000       0.00000000       1.23818182       0.00000000       0.00000000     -15.87647152
2
Properties=species:S:1:pos:R:3:forces:R:3 energy=-65.35928124315207 pbc="F F F"
Sm       0.00000000       0.00000000       0.00000000       0.00000000       0.00000000      15.00485802
Sm       0.00000000       0.00000000       1.29696970       0.00000000       0.00000000     -15.00485802
2
Properties=species:S:1:pos:R:3:forces:R:3 energy=-64.52841707193562 pbc="F F F"
Sm       0.00000000       0.00000000       0.00000000       0.00000000       0.00000000      13.08189392
Sm       0.00000000       0.00000000       1.35575758       0.00000000       0.00000000     -13.08189392
2
Properties=species:S:1:pos:R:3:forces:R:3 energy=-63.84524647773158 pbc="F F F"
Sm       0.00000000       0.00000000       0.00000000       0.00000000       0.00000000       9.97288799
Sm       0.00000000       0.00000000       1.41454545       0.00000000       0.00000000      -9.97288799
2
Properties=species:S:1:pos:R:3:forces:R:3 energy=-63.37092668393462 pbc="F F F"
Sm       0.00000000       0.00000000       0.00000000       0.00000000       0.00000000       6.09148312
Sm       0.00000000       0.00000000       1.47333333       0.00000000       0.00000000      -6.09148312
2
Properties=species:S:1:pos:R:3:forces:R:3 energy=-63.13412512148898 pbc="F F F"
Sm       0.00000000       0.00000000       0.00000000       0.00000000       0.00000000       1.93587160
Sm       0.00000000       0.00000000       1.53212121       0.00000000       0.00000000      -1.93587160
2
Properties=species:S:1:pos:R:3:forces:R:3 energy=-63.1454809683972 pbc="F F F"
Sm       0.00000000       0.00000000       0.00000000       0.00000000       0.00000000      -2.32514548
Sm       0.00000000       0.00000000       1.59090909       0.00000000       0.00000000       2.32514548
2
Properties=species:S:1:pos:R:3:forces:R:3 energy=-63.40469285407183 pbc="F F F"
Sm       0.00000000       0.00000000       0.00000000       0.00000000       0.00000000      -6.43536711
Sm       0.00000000       0.00000000       1.64969697       0.00000000       0.00000000       6.43536711
2
Properties=species:S:1:pos:R:3:forces:R:3 energy=-63.889860579336165 pbc="F F F"
Sm       0.00000000       0.00000000       0.00000000       0.00000000       0.00000000      -9.91326523
Sm       0.00000000       0.00000000       1.70848485       0.00000000       0.00000000       9.91326523
2
Properties=species:S:1:pos:R:3:forces:R:3 energy=-64.5458693759217 pbc="F F F"
Sm       0.00000000       0.00000000       0.00000000       0.00000000       0.00000000     -12.15953541
Sm       0.00000000       0.00000000       1.76727273       0.00000000       0.00000000      12.15953541
2
Properties=species:S:1:pos:R:3:forces:R:3 energy=-65.29003947945417 pbc="F F F"
Sm       0.00000000       0.00000000       0.00000000       0.00000000       0.00000000     -12.92429543
Sm       0.00000000       0.00000000       1.82606061       0.00000000       0.00000000      12.92429543
2
Properties=species:S:1:pos:R:3:forces:R:3 energy=-66.04296794100699 pbc="F F F"
Sm       0.00000000       0.00000000       0.00000000       0.00000000       0.00000000     -12.54673195
Sm       0.00000000       0.00000000       1.88484848       0.00000000       0.00000000      12.54673195
2
Properties=species:S:1:pos:R:3:forces:R:3 energy=-66.75314106019479 pbc="F F F"
Sm       0.00000000       0.00000000       0.00000000       0.00000000       0.00000000     -11.54500198
Sm       0.00000000       0.00000000       1.94363636       0.00000000       0.00000000      11.54500198
2
Properties=species:S:1:pos:R:3:forces:R:3 energy=-67.39541232413215 pbc="F F F"
Sm       0.00000000       0.00000000       0.00000000       0.00000000       0.00000000     -10.28589630
Sm       0.00000000       0.00000000       2.00242424       0.00000000       0.00000000      10.28589630
2
Properties=species:S:1:pos:R:3:forces:R:3 energy=-67.96222859738711 pbc="F F F"
Sm       0.00000000       0.00000000       0.00000000       0.00000000       0.00000000      -9.00797081
Sm       0.00000000       0.00000000       2.06121212       0.00000000       0.00000000       9.00797081
2
Properties=species:S:1:pos:R:3:forces:R:3 energy=-68.45640509169564 pbc="F F F"
Sm       0.00000000       0.00000000       0.00000000       0.00000000       0.00000000      -7.82250786
Sm       0.00000000       0.00000000       2.12000000       0.00000000       0.00000000       7.82250786
2
Properties=species:S:1:pos:R:3:forces:R:3 energy=-68.88406054345795 pbc="F F F"
Sm       0.00000000       0.00000000       0.00000000       0.00000000       0.00000000      -6.74274158
Sm       0.00000000       0.00000000       2.17878788       0.00000000       0.00000000       6.74274158
2
Properties=species:S:1:pos:R:3:forces:R:3 energy=-69.25071095106713 pbc="F F F"
Sm       0.00000000       0.00000000       0.00000000       0.00000000       0.00000000      -5.73991251
Sm       0.00000000       0.00000000       2.23757576       0.00000000       0.00000000       5.73991251
2
Properties=species:S:1:pos:R:3:forces:R:3 energy=-69.55960639857967 pbc="F F F"
Sm       0.00000000       0.00000000       0.00000000       0.00000000       0.00000000      -4.77179861
Sm       0.00000000       0.00000000       2.29636364       0.00000000       0.00000000       4.77179861
2
Properties=species:S:1:pos:R:3:forces:R:3 energy=-69.81192175890038 pbc="F F F"
Sm       0.00000000       0.00000000       0.00000000       0.00000000       0.00000000      -3.81319880
Sm       0.00000000       0.00000000       2.35515152       0.00000000       0.00000000       3.81319880
2
Properties=species:S:1:pos:R:3:forces:R:3 energy=-70.0081681381064 pbc="F F F"
Sm       0.00000000       0.00000000       0.00000000       0.00000000       0.00000000      -2.86688304
Sm       0.00000000       0.00000000       2.41393939       0.00000000       0.00000000       2.86688304
2
Properties=species:S:1:pos:R:3:forces:R:3 energy=-70.14975691399742 pbc="F F F"
Sm       0.00000000       0.00000000       0.00000000       0.00000000       0.00000000      -1.96008778
Sm       0.00000000       0.00000000       2.47272727       0.00000000       0.00000000       1.96008778
2
Properties=species:S:1:pos:R:3:forces:R:3 energy=-70.2403653882132 pbc="F F F"
Sm       0.00000000       0.00000000       0.00000000       0.00000000       0.00000000      -1.14235353
Sm       0.00000000       0.00000000       2.53151515       0.00000000       0.00000000       1.14235353
2
Properties=species:S:1:pos:R:3:forces:R:3 energy=-70.28701253719827 pbc="F F F"
Sm       0.00000000       0.00000000       0.00000000       0.00000000       0.00000000      -0.47434139
Sm       0.00000000       0.00000000       2.59030303       0.00000000       0.00000000       0.47434139
2
Properties=species:S:1:pos:R:3:forces:R:3 energy=-70.2999674182857 pbc="F F F"
Sm       0.00000000       0.00000000       0.00000000       0.00000000       0.00000000      -0.00042928
Sm       0.00000000       0.00000000       2.64909091       0.00000000       0.00000000       0.00042928
2
Properties=species:S:1:pos:R:3:forces:R:3 energy=-70.29093346566566 pbc="F F F"
Sm       0.00000000       0.00000000       0.00000000       0.00000000       0.00000000       0.27772823
Sm       0.00000000       0.00000000       2.70787879       0.00000000       0.00000000      -0.27772823
2
Properties=species:S:1:pos:R:3:forces:R:3 energy=-70.27031707527625 pbc="F F F"
Sm       0.00000000       0.00000000       0.00000000       0.00000000       0.00000000       0.40327260
Sm       0.00000000       0.00000000       2.76666667       0.00000000       0.00000000      -0.40327260
2
Properties=species:S:1:pos:R:3:forces:R:3 energy=-70.2452516137948 pbc="F F F"
Sm       0.00000000       0.00000000       0.00000000       0.00000000       0.00000000       0.43985373
Sm       0.00000000       0.00000000       2.82545455       0.00000000       0.00000000      -0.43985373
2
Properties=species:S:1:pos:R:3:forces:R:3 energy=-70.21924651400667 pbc="F F F"
Sm       0.00000000       0.00000000       0.00000000       0.00000000       0.00000000       0.44288892
Sm       0.00000000       0.00000000       2.88424242       0.00000000       0.00000000      -0.44288892
2
Properties=species:S:1:pos:R:3:forces:R:3 energy=-70.19315613188299 pbc="F F F"
Sm       0.00000000       0.00000000       0.00000000       0.00000000       0.00000000       0.44658050
Sm       0.00000000       0.00000000       2.94303030       0.00000000       0.00000000      -0.44658050
2
Properties=species:S:1:pos:R:3:forces:R:3 energy=-70.16640052890126 pbc="F F F"
Sm       0.00000000       0.00000000       0.00000000       0.00000000       0.00000000       0.46720088
Sm       0.00000000       0.00000000       3.00181818       0.00000000       0.00000000      -0.46720088
2
Properties=species:S:1:pos:R:3:forces:R:3 energy=-70.13775886888794 pbc="F F F"
Sm       0.00000000       0.00000000       0.00000000       0.00000000       0.00000000       0.51143408
Sm       0.00000000       0.00000000       3.06060606       0.00000000       0.00000000      -0.51143408
2
Properties=species:S:1:pos:R:3:forces:R:3 energy=-70.1057585203074 pbc="F F F"
Sm       0.00000000       0.00000000       0.00000000       0.00000000       0.00000000       0.58178973
Sm       0.00000000       0.00000000       3.11939394       0.00000000       0.00000000      -0.58178973
2
Properties=species:S:1:pos:R:3:forces:R:3 energy=-70.06885057985346 pbc="F F F"
Sm       0.00000000       0.00000000       0.00000000       0.00000000       0.00000000       0.67781013
Sm       0.00000000       0.00000000       3.17818182       0.00000000       0.00000000      -0.67781013
2
Properties=species:S:1:pos:R:3:forces:R:3 energy=-70.02565395922136 pbc="F F F"
Sm       0.00000000       0.00000000       0.00000000       0.00000000       0.00000000       0.79452503
Sm       0.00000000       0.00000000       3.23696970       0.00000000       0.00000000      -0.79452503
2
Properties=species:S:1:pos:R:3:forces:R:3 energy=-69.97525295683715 pbc="F F F"
Sm       0.00000000       0.00000000       0.00000000       0.00000000       0.00000000       0.92013681
Sm       0.00000000       0.00000000       3.29575758       0.00000000       0.00000000      -0.92013681
2
Properties=species:S:1:pos:R:3:forces:R:3 energy=-69.91766265092402 pbc="F F F"
Sm       0.00000000       0.00000000       0.00000000       0.00000000       0.00000000       1.03566885
Sm       0.00000000       0.00000000       3.35454545       0.00000000       0.00000000      -1.03566885
2
Properties=species:S:1:pos:R:3:forces:R:3 energy=-69.8541187974876 pbc="F F F"
Sm       0.00000000       0.00000000       0.00000000       0.00000000       0.00000000       1.11909258
Sm       0.00000000       0.00000000       3.41333333       0.00000000       0.00000000      -1.11909258
2
Properties=species:S:1:pos:R:3:forces:R:3 energy=-69.78705496113928 pbc="F F F"
Sm       0.00000000       0.00000000       0.00000000       0.00000000       0.00000000       1.15342343
Sm       0.00000000       0.00000000       3.47212121       0.00000000       0.00000000      -1.15342343
2
Properties=species:S:1:pos:R:3:forces:R:3 energy=-69.71955318918648 pbc="F F F"
Sm       0.00000000       0.00000000       0.00000000       0.00000000       0.00000000       1.13462698
Sm       0.00000000       0.00000000       3.53090909       0.00000000       0.00000000      -1.13462698
2
Properties=species:S:1:pos:R:3:forces:R:3 energy=-69.65446663442941 pbc="F F F"
Sm       0.00000000       0.00000000       0.00000000       0.00000000       0.00000000       1.07446694
Sm       0.00000000       0.00000000       3.58969697       0.00000000       0.00000000      -1.07446694
2
Properties=species:S:1:pos:R:3:forces:R:3 energy=-69.59357270187154 pbc="F F F"
Sm       0.00000000       0.00000000       0.00000000       0.00000000       0.00000000       0.99631214
Sm       0.00000000       0.00000000       3.64848485       0.00000000       0.00000000      -0.99631214
2
Properties=species:S:1:pos:R:3:forces:R:3 energy=-69.5371686686347 pbc="F F F"
Sm       0.00000000       0.00000000       0.00000000       0.00000000       0.00000000       0.92578727
Sm       0.00000000       0.00000000       3.70727273       0.00000000       0.00000000      -0.92578727
2
Properties=species:S:1:pos:R:3:forces:R:3 energy=-69.48421668046907 pbc="F F F"
Sm       0.00000000       0.00000000       0.00000000       0.00000000       0.00000000       0.88087022
Sm       0.00000000       0.00000000       3.76606061       0.00000000       0.00000000      -0.88087022
2
Properties=species:S:1:pos:R:3:forces:R:3 energy=-69.43299984166894 pbc="F F F"
Sm       0.00000000       0.00000000       0.00000000       0.00000000       0.00000000       0.86644036
Sm       0.00000000       0.00000000       3.82484848       0.00000000       0.00000000      -0.86644036
2
Properties=species:S:1:pos:R:3:forces:R:3 energy=-69.38186990524026 pbc="F F F"
Sm       0.00000000       0.00000000       0.00000000       0.00000000       0.00000000       0.87576675
Sm       0.00000000       0.00000000       3.88363636       0.00000000       0.00000000      -0.87576675
2
Properties=species:S:1:pos:R:3:forces:R:3 energy=-69.3297966114817 pbc="F F F"
Sm       0.00000000       0.00000000       0.00000000       0.00000000       0.00000000       0.89673847
Sm       0.00000000       0.00000000       3.94242424       0.00000000       0.00000000      -0.89673847
2
Properties=species:S:1:pos:R:3:forces:R:3 energy=-69.27643630818582 pbc="F F F"
Sm       0.00000000       0.00000000       0.00000000       0.00000000       0.00000000       0.91797721
Sm       0.00000000       0.00000000       4.00121212       0.00000000       0.00000000      -0.91797721
2
Properties=species:S:1:pos:R:3:forces:R:3 energy=-69.22201754139942 pbc="F F F"
Sm       0.00000000       0.00000000       0.00000000       0.00000000       0.00000000       0.93184894
Sm       0.00000000       0.00000000       4.06000000       0.00000000       0.00000000      -0.93184894
2
Properties=species:S:1:pos:R:3:forces:R:3 energy=-69.16708928540399 pbc="F F F"
Sm       0.00000000       0.00000000       0.00000000       0.00000000       0.00000000       0.93469834
Sm       0.00000000       0.00000000       4.11878788       0.00000000       0.00000000      -0.93469834
2
Properties=species:S:1:pos:R:3:forces:R:3 energy=-69.1123454539701 pbc="F F F"
Sm       0.00000000       0.00000000       0.00000000       0.00000000       0.00000000       0.92583323
Sm       0.00000000       0.00000000       4.17757576       0.00000000       0.00000000      -0.92583323
2
Properties=species:S:1:pos:R:3:forces:R:3 energy=-69.05844943061898 pbc="F F F"
Sm       0.00000000       0.00000000       0.00000000       0.00000000       0.00000000       0.90620053
Sm       0.00000000       0.00000000       4.23636364       0.00000000       0.00000000      -0.90620053
2
Properties=species:S:1:pos:R:3:forces:R:3 energy=-69.005980675532 pbc="F F F"
Sm       0.00000000       0.00000000       0.00000000       0.00000000       0.00000000       0.87715036
Sm       0.00000000       0.00000000       4.29515152       0.00000000       0.00000000      -0.87715036
2
Properties=species:S:1:pos:R:3:forces:R:3 energy=-68.95548047657527 pbc="F F F"
Sm       0.00000000       0.00000000       0.00000000       0.00000000       0.00000000       0.83964002
Sm       0.00000000       0.00000000       4.35393939       0.00000000       0.00000000      -0.83964002
2
Properties=species:S:1:pos:R:3:forces:R:3 energy=-68.90742146973544 pbc="F F F"
Sm       0.00000000       0.00000000       0.00000000       0.00000000       0.00000000       0.79401463
Sm       0.00000000       0.00000000       4.41272727       0.00000000       0.00000000      -0.79401463
2
Properties=species:S:1:pos:R:3:forces:R:3 energy=-68.86227625298527 pbc="F F F"
Sm       0.00000000       0.00000000       0.00000000       0.00000000       0.00000000       0.74049801
Sm       0.00000000       0.00000000       4.47151515       0.00000000       0.00000000      -0.74049801
2
Properties=species:S:1:pos:R:3:forces:R:3 energy=-68.82049456779215 pbc="F F F"
Sm       0.00000000       0.00000000       0.00000000       0.00000000       0.00000000       0.67991835
Sm       0.00000000       0.00000000       4.53030303       0.00000000       0.00000000      -0.67991835
2
Properties=species:S:1:pos:R:3:forces:R:3 energy=-68.7824345712109 pbc="F F F"
Sm       0.00000000       0.00000000       0.00000000       0.00000000       0.00000000       0.61427474
Sm       0.00000000       0.00000000       4.58909091       0.00000000       0.00000000      -0.61427474
2
Properties=species:S:1:pos:R:3:forces:R:3 energy=-68.74830946813586 pbc="F F F"
Sm       0.00000000       0.00000000       0.00000000       0.00000000       0.00000000       0.54674786
Sm       0.00000000       0.00000000       4.64787879       0.00000000       0.00000000      -0.54674786
2
Properties=species:S:1:pos:R:3:forces:R:3 energy=-68.7181188404145 pbc="F F F"
Sm       0.00000000       0.00000000       0.00000000       0.00000000       0.00000000       0.48102760
Sm       0.00000000       0.00000000       4.70666667       0.00000000       0.00000000      -0.48102760
2
Properties=species:S:1:pos:R:3:forces:R:3 energy=-68.6916562794098 pbc="F F F"
Sm       0.00000000       0.00000000       0.00000000       0.00000000       0.00000000       0.42035383
Sm       0.00000000       0.00000000       4.76545455       0.00000000       0.00000000      -0.42035383
2
Properties=species:S:1:pos:R:3:forces:R:3 energy=-68.66855516236735 pbc="F F F"
Sm       0.00000000       0.00000000       0.00000000       0.00000000       0.00000000       0.36662114
Sm       0.00000000       0.00000000       4.82424242       0.00000000       0.00000000      -0.36662114
2
Properties=species:S:1:pos:R:3:forces:R:3 energy=-68.6484031028369 pbc="F F F"
Sm       0.00000000       0.00000000       0.00000000       0.00000000       0.00000000       0.32012865
Sm       0.00000000       0.00000000       4.88303030       0.00000000       0.00000000      -0.32012865
2
Properties=species:S:1:pos:R:3:forces:R:3 energy=-68.63079535009832 pbc="F F F"
Sm       0.00000000       0.00000000       0.00000000       0.00000000       0.00000000       0.27991366
Sm       0.00000000       0.00000000       4.94181818       0.00000000       0.00000000      -0.27991366
2
Properties=species:S:1:pos:R:3:forces:R:3 energy=-68.61539582748578 pbc="F F F"
Sm       0.00000000       0.00000000       0.00000000       0.00000000       0.00000000       0.24473935
Sm       0.00000000       0.00000000       5.00060606       0.00000000       0.00000000      -0.24473935
2
Properties=species:S:1:pos:R:3:forces:R:3 energy=-68.6019295283357 pbc="F F F"
Sm       0.00000000       0.00000000       0.00000000       0.00000000       0.00000000       0.21409482
Sm       0.00000000       0.00000000       5.05939394       0.00000000       0.00000000      -0.21409482
2
Properties=species:S:1:pos:R:3:forces:R:3 energy=-68.59011382609347 pbc="F F F"
Sm       0.00000000       0.00000000       0.00000000       0.00000000       0.00000000       0.18896930
Sm       0.00000000       0.00000000       5.11818182       0.00000000       0.00000000      -0.18896930
2
Properties=species:S:1:pos:R:3:forces:R:3 energy=-68.57955930168795 pbc="F F F"
Sm       0.00000000       0.00000000       0.00000000       0.00000000       0.00000000       0.17178312
Sm       0.00000000       0.00000000       5.17696970       0.00000000       0.00000000      -0.17178312
2
Properties=species:S:1:pos:R:3:forces:R:3 energy=-68.56971637578364 pbc="F F F"
Sm       0.00000000       0.00000000       0.00000000       0.00000000       0.00000000       0.16493389
Sm       0.00000000       0.00000000       5.23575758       0.00000000       0.00000000      -0.16493389
2
Properties=species:S:1:pos:R:3:forces:R:3 energy=-68.55997442755319 pbc="F F F"
Sm       0.00000000       0.00000000       0.00000000       0.00000000       0.00000000       0.16779603
Sm       0.00000000       0.00000000       5.29454545       0.00000000       0.00000000      -0.16779603
2
Properties=species:S:1:pos:R:3:forces:R:3 energy=-68.54990602716913 pbc="F F F"
Sm       0.00000000       0.00000000       0.00000000       0.00000000       0.00000000       0.17478943
Sm       0.00000000       0.00000000       5.35333333       0.00000000       0.00000000      -0.17478943
2
Properties=species:S:1:pos:R:3:forces:R:3 energy=-68.53944233268265 pbc="F F F"
Sm       0.00000000       0.00000000       0.00000000       0.00000000       0.00000000       0.18113954
Sm       0.00000000       0.00000000       5.41212121       0.00000000       0.00000000      -0.18113954
2
Properties=species:S:1:pos:R:3:forces:R:3 energy=-68.52849931304797 pbc="F F F"
Sm       0.00000000       0.00000000       0.00000000       0.00000000       0.00000000       0.19300364
Sm       0.00000000       0.00000000       5.47090909       0.00000000       0.00000000      -0.19300364
2
Properties=species:S:1:pos:R:3:forces:R:3 energy=-68.5165809942641 pbc="F F F"
Sm       0.00000000       0.00000000       0.00000000       0.00000000       0.00000000       0.21205001
Sm       0.00000000       0.00000000       5.52969697       0.00000000       0.00000000      -0.21205001
2
Properties=species:S:1:pos:R:3:forces:R:3 energy=-68.5038704691285 pbc="F F F"
Sm       0.00000000       0.00000000       0.00000000       0.00000000       0.00000000       0.21594733
Sm       0.00000000       0.00000000       5.58848485       0.00000000       0.00000000      -0.21594733
2
Properties=species:S:1:pos:R:3:forces:R:3 energy=-68.49165716233776 pbc="F F F"
Sm       0.00000000       0.00000000       0.00000000       0.00000000       0.00000000       0.19805887
Sm       0.00000000       0.00000000       5.64727273       0.00000000       0.00000000      -0.19805887
2
Properties=species:S:1:pos:R:3:forces:R:3 energy=-68.48039895160534 pbc="F F F"
Sm       0.00000000       0.00000000       0.00000000       0.00000000       0.00000000       0.18961918
Sm       0.00000000       0.00000000       5.70606061       0.00000000       0.00000000      -0.18961918
2
Properties=species:S:1:pos:R:3:forces:R:3 energy=-68.46876088295761 pbc="F F F"
Sm       0.00000000       0.00000000       0.00000000       0.00000000       0.00000000       0.20740436
Sm       0.00000000       0.00000000       5.76484848       0.00000000       0.00000000      -0.20740436
2
Properties=species:S:1:pos:R:3:forces:R:3 energy=-68.45650669225422 pbc="F F F"
Sm       0.00000000       0.00000000       0.00000000       0.00000000       0.00000000       0.19973166
Sm       0.00000000       0.00000000       5.82363636       0.00000000       0.00000000      -0.19973166
2
Properties=species:S:1:pos:R:3:forces:R:3 energy=-68.44665031345289 pbc="F F F"
Sm       0.00000000       0.00000000       0.00000000       0.00000000       0.00000000       0.12835898
Sm       0.00000000       0.00000000       5.88242424       0.00000000       0.00000000      -0.12835898
2
Properties=species:S:1:pos:R:3:forces:R:3 energy=-68.44170221966779 pbc="F F F"
Sm       0.00000000       0.00000000       0.00000000       0.00000000       0.00000000       0.04308110
Sm       0.00000000       0.00000000       5.94121212       0.00000000       0.00000000      -0.04308110
2
Properties=species:S:1:pos:R:3:forces:R:3 energy=-68.44055660802611 pbc="F F F"
Sm       0.00000000       0.00000000       0.00000000       0.00000000       0.00000000       0.00764855
Sm       0.00000000       0.00000000       6.00000000       0.00000000       0.00000000      -0.00764855
