2
Properties=species:S:1:pos:R:3:forces:R:3 energy=-428461.3362503569 pbc="F F F"
Sr       0.00000000       0.00000000       0.00000000       0.00000000       0.00000000  -48036.68750000
Sr       0.00000000       0.00000000       0.18000000       0.00000000       0.00000000   48036.68750000
2
Properties=species:S:1:pos:R:3:forces:R:3 energy=-427010.8675003569 pbc="F F F"
Sr       0.00000000       0.00000000       0.00000000       0.00000000       0.00000000   94260.82031250
Sr       0.00000000       0.00000000       0.23878788       0.00000000       0.00000000  -94260.82031250
2
Properties=species:S:1:pos:R:3:forces:R:3 energy=-416864.8362503569 pbc="F F F"
Sr       0.00000000       0.00000000       0.00000000       0.00000000       0.00000000  260038.15625000
Sr       0.00000000       0.00000000       0.29757576       0.00000000       0.00000000 -260038.15625000
2
Properties=species:S:1:pos:R:3:forces:R:3 energy=-395148.4612503569 pbc="F F F"
Sr       0.00000000       0.00000000       0.00000000       0.00000000       0.00000000  490119.62500000
Sr       0.00000000       0.00000000       0.35636364       0.00000000       0.00000000 -490119.62500000
2
Properties=species:S:1:pos:R:3:forces:R:3 energy=-358044.6175003569 pbc="F F F"
Sr       0.00000000       0.00000000       0.00000000       0.00000000       0.00000000  779605.75000000
Sr       0.00000000       0.00000000       0.41515152       0.00000000       0.00000000 -779605.75000000
2
Properties=species:S:1:pos:R:3:forces:R:3 energy=-303284.9300003537 pbc="F F F"
Sr       0.00000000       0.00000000       0.00000000       0.00000000       0.00000000 1077929.62500000
Sr       0.00000000       0.00000000       0.47393939       0.00000000       0.00000000 -1077929.62500000
2
Properties=species:S:1:pos:R:3:forces:R:3 energy=-233016.77375035375 pbc="F F F"
Sr       0.00000000       0.00000000       0.00000000       0.00000000       0.00000000 1288223.12500000
Sr       0.00000000       0.00000000       0.53272727       0.00000000       0.00000000 -1288223.12500000
2
Properties=species:S:1:pos:R:3:forces:R:3 energy=-155779.16437535058 pbc="F F F"
Sr       0.00000000       0.00000000       0.00000000       0.00000000       0.00000000 1298400.62500000
Sr       0.00000000       0.00000000       0.59151515       0.00000000       0.00000000 -1298400.62500000
2
Properties=species:S:1:pos:R:3:forces:R:3 energy=-85403.83625034899 pbc="F F F"
Sr       0.00000000       0.00000000       0.00000000       0.00000000       0.00000000 1055896.37500000
Sr       0.00000000       0.00000000       0.65030303       0.00000000       0.00000000 -1055896.37500000
2
Properties=species:S:1:pos:R:3:forces:R:3 energy=-35052.824531592654 pbc="F F F"
Sr       0.00000000       0.00000000       0.00000000       0.00000000       0.00000000  643386.25000000
Sr       0.00000000       0.00000000       0.70909091       0.00000000       0.00000000 -643386.25000000
2
Properties=species:S:1:pos:R:3:forces:R:3 energy=-9566.842109709738 pbc="F F F"
Sr       0.00000000       0.00000000       0.00000000       0.00000000       0.00000000  221653.50000000
Sr       0.00000000       0.00000000       0.76787879       0.00000000       0.00000000 -221653.50000000
2
Properties=species:S:1:pos:R:3:forces:R:3 energy=-1792.2125930970876 pbc="F F F"
Sr       0.00000000       0.00000000       0.00000000       0.00000000       0.00000000   63021.92187500
Sr       0.00000000       0.00000000       0.82666667       0.00000000       0.00000000  -63021.92187500
2
Properties=species:S:1:pos:R:3:forces:R:3 energy=30.857975005052303 pbc="F F F"
Sr       0.00000000       0.00000000       0.00000000       0.00000000       0.00000000    8276.22753906
Sr       0.00000000       0.00000000       0.88545455       0.00000000       0.00000000   -8276.22753906
2
Properties=species:S:1:pos:R:3:forces:R:3 energy=53.37819674059996 pbc="F F F"
Sr       0.00000000       0.00000000       0.00000000       0.00000000       0.00000000   -1085.15563965
Sr       0.00000000       0.00000000       0.94424242       0.00000000       0.00000000    1085.15563965
2
Properties=species:S:1:pos:R:3:forces:R:3 energy=29.622989710510602 pbc="F F F"
Sr       0.00000000       0.00000000       0.00000000       0.00000000       0.00000000    -315.35336304
Sr       0.00000000       0.00000000       1.00303030       0.00000000       0.00000000     315.35336304
2
Properties=species:S:1:pos:R:3:forces:R:3 energy=20.583259682838627 pbc="F F F"
Sr       0.00000000       0.00000000       0.00000000       0.00000000       0.00000000     -75.64501953
Sr       0.00000000       0.00000000       1.06181818       0.00000000       0.00000000      75.64501953
2
Properties=species:S:1:pos:R:3:forces:R:3 energy=16.435852208121144 pbc="F F F"
Sr       0.00000000       0.00000000       0.00000000       0.00000000       0.00000000     -61.26285553
Sr       0.00000000       0.00000000       1.12060606       0.00000000       0.00000000      61.26285553
2
Properties=species:S:1:pos:R:3:forces:R:3 energy=12.870712513641063 pbc="F F F"
Sr       0.00000000       0.00000000       0.00000000       0.00000000       0.00000000     -66.04919434
Sr       0.00000000       0.00000000       1.17939394       0.00000000       0.00000000      66.04919434
2
Properties=species:S:1:pos:R:3:forces:R:3 energy=9.115276665072212 pbc="F F F"
Sr       0.00000000       0.00000000       0.00000000       0.00000000       0.00000000     -56.80409241
Sr       0.00000000       0.00000000       1.23818182       0.00000000       0.00000000      56.80409241
2
Properties=species:S:1:pos:R:3:forces:R:3 energy=5.812832332193374 pbc="F F F"
Sr       0.00000000       0.00000000       0.00000000       0.00000000       0.00000000     -60.22107697
Sr       0.00000000       0.00000000       1.29696970       0.00000000       0.00000000      60.22107697
2
Properties=species:S:1:pos:R:3:forces:R:3 energy=2.23052276610018 pbc="F F F"
Sr       0.00000000       0.00000000       0.00000000       0.00000000       0.00000000     -58.28112793
Sr       0.00000000       0.00000000       1.35575758       0.00000000       0.00000000      58.28112793
2
Properties=species:S:1:pos:R:3:forces:R:3 energy=-0.946631581678294 pbc="F F F"
Sr       0.00000000       0.00000000       0.00000000       0.00000000       0.00000000     -50.49714661
Sr       0.00000000       0.00000000       1.41454545       0.00000000       0.00000000      50.49714661
2
Properties=species:S:1:pos:R:3:forces:R:3 energy=-3.79614534849217 pbc="F F F"
Sr       0.00000000       0.00000000       0.00000000       0.00000000       0.00000000     -46.98734283
Sr       0.00000000       0.00000000       1.47333333       0.00000000       0.00000000      46.98734283
2
Properties=species:S:1:pos:R:3:forces:R:3 energy=-6.505842777273382 pbc="F F F"
Sr       0.00000000       0.00000000       0.00000000       0.00000000       0.00000000     -45.30470657
Sr       0.00000000       0.00000000       1.53212121       0.00000000       0.00000000      45.30470657
2
Properties=species:S:1:pos:R:3:forces:R:3 energy=-9.120397778196198 pbc="F F F"
Sr       0.00000000       0.00000000       0.00000000       0.00000000       0.00000000     -43.52301407
Sr       0.00000000       0.00000000       1.59090909       0.00000000       0.00000000      43.52301407
2
Properties=species:S:1:pos:R:3:forces:R:3 energy=-11.602671399685521 pbc="F F F"
Sr       0.00000000       0.00000000       0.00000000       0.00000000       0.00000000     -40.73616791
Sr       0.00000000       0.00000000       1.64969697       0.00000000       0.00000000      40.73616791
2
Properties=species:S:1:pos:R:3:forces:R:3 energy=-13.889782159343499 pbc="F F F"
Sr       0.00000000       0.00000000       0.00000000       0.00000000       0.00000000     -36.91076279
Sr       0.00000000       0.00000000       1.70848485       0.00000000       0.00000000      36.91076279
2
Properties=species:S:1:pos:R:3:forces:R:3 energy=-15.920485081483147 pbc="F F F"
Sr       0.00000000       0.00000000       0.00000000       0.00000000       0.00000000     -31.95543480
Sr       0.00000000       0.00000000       1.76727273       0.00000000       0.00000000      31.95543480
2
Properties=species:S:1:pos:R:3:forces:R:3 energy=-17.624671738152973 pbc="F F F"
Sr       0.00000000       0.00000000       0.00000000       0.00000000       0.00000000     -25.92937660
Sr       0.00000000       0.00000000       1.82606061       0.00000000       0.00000000      25.92937660
2
Properties=species:S:1:pos:R:3:forces:R:3 energy=-18.976126553894535 pbc="F F F"
Sr       0.00000000       0.00000000       0.00000000       0.00000000       0.00000000     -20.25122643
Sr       0.00000000       0.00000000       1.88484848       0.00000000       0.00000000      20.25122643
2
Properties=species:S:1:pos:R:3:forces:R:3 energy=-20.040386011892156 pbc="F F F"
Sr       0.00000000       0.00000000       0.00000000       0.00000000       0.00000000     -16.29486465
Sr       0.00000000       0.00000000       1.94363636       0.00000000       0.00000000      16.29486465
2
Properties=species:S:1:pos:R:3:forces:R:3 energy=-20.927979034310024 pbc="F F F"
Sr       0.00000000       0.00000000       0.00000000       0.00000000       0.00000000     -14.12845039
Sr       0.00000000       0.00000000       2.00242424       0.00000000       0.00000000      14.12845039
2
Properties=species:S:1:pos:R:3:forces:R:3 energy=-21.714354592009368 pbc="F F F"
Sr       0.00000000       0.00000000       0.00000000       0.00000000       0.00000000     -12.61276627
Sr       0.00000000       0.00000000       2.06121212       0.00000000       0.00000000      12.61276627
2
Properties=species:S:1:pos:R:3:forces:R:3 energy=-22.398984319324587 pbc="F F F"
Sr       0.00000000       0.00000000       0.00000000       0.00000000       0.00000000     -10.52811909
Sr       0.00000000       0.00000000       2.12000000       0.00000000       0.00000000      10.52811909
2
Properties=species:S:1:pos:R:3:forces:R:3 energy=-22.93736020898252 pbc="F F F"
Sr       0.00000000       0.00000000       0.00000000       0.00000000       0.00000000      -7.72841930
Sr       0.00000000       0.00000000       2.17878788       0.00000000       0.00000000       7.72841930
2
Properties=species:S:1:pos:R:3:forces:R:3 energy=-23.312150155446393 pbc="F F F"
Sr       0.00000000       0.00000000       0.00000000       0.00000000       0.00000000      -5.15134621
Sr       0.00000000       0.00000000       2.23757576       0.00000000       0.00000000       5.15134621
2
Properties=species:S:1:pos:R:3:forces:R:3 energy=-23.56441361313699 pbc="F F F"
Sr       0.00000000       0.00000000       0.00000000       0.00000000       0.00000000      -3.63221979
Sr       0.00000000       0.00000000       2.29636364       0.00000000       0.00000000       3.63221979
2
Properties=species:S:1:pos:R:3:forces:R:3 energy=-23.76035271248846 pbc="F F F"
Sr       0.00000000       0.00000000       0.00000000       0.00000000       0.00000000      -3.17517829
Sr       0.00000000       0.00000000       2.35515152       0.00000000       0.00000000       3.17517829
2
Properties=species:S:1:pos:R:3:forces:R:3 energy=-23.94884894149693 pbc="F F F"
Sr       0.00000000       0.00000000       0.00000000       0.00000000       0.00000000      -3.28806019
Sr       0.00000000       0.00000000       2.41393939       0.00000000       0.00000000       3.28806019
2
Properties=species:S:1:pos:R:3:forces:R:3 energy=-24.14898909674926 pbc="F F F"
Sr       0.00000000       0.00000000       0.00000000       0.00000000       0.00000000      -3.51362491
Sr       0.00000000       0.00000000       2.47272727       0.00000000       0.00000000       3.51362491
2
Properties=species:S:1:pos:R:3:forces:R:3 energy=-24.359636360446437 pbc="F F F"
Sr       0.00000000       0.00000000       0.00000000       0.00000000       0.00000000      -3.62662172
Sr       0.00000000       0.00000000       2.53151515       0.00000000       0.00000000       3.62662172
2
Properties=species:S:1:pos:R:3:forces:R:3 energy=-24.57236020411409 pbc="F F F"
Sr       0.00000000       0.00000000       0.00000000       0.00000000       0.00000000      -3.58780670
Sr       0.00000000       0.00000000       2.59030303       0.00000000       0.00000000       3.58780670
2
Properties=species:S:1:pos:R:3:forces:R:3 energy=-24.779422463663746 pbc="F F F"
Sr       0.00000000       0.00000000       0.00000000       0.00000000       0.00000000      -3.44445348
Sr       0.00000000       0.00000000       2.64909091       0.00000000       0.00000000       3.44445348
2
Properties=species:S:1:pos:R:3:forces:R:3 energy=-24.97651440052002 pbc="F F F"
Sr       0.00000000       0.00000000       0.00000000       0.00000000       0.00000000      -3.25766230
Sr       0.00000000       0.00000000       2.70787879       0.00000000       0.00000000       3.25766230
2
Properties=species:S:1:pos:R:3:forces:R:3 energy=-25.1623618788697 pbc="F F F"
Sr       0.00000000       0.00000000       0.00000000       0.00000000       0.00000000      -3.06557608
Sr       0.00000000       0.00000000       2.76666667       0.00000000       0.00000000       3.06557608
2
Properties=species:S:1:pos:R:3:forces:R:3 energy=-25.33699729196132 pbc="F F F"
Sr       0.00000000       0.00000000       0.00000000       0.00000000       0.00000000      -2.87508559
Sr       0.00000000       0.00000000       2.82545455       0.00000000       0.00000000       2.87508559
2
Properties=species:S:1:pos:R:3:forces:R:3 energy=-25.500186039080873 pbc="F F F"
Sr       0.00000000       0.00000000       0.00000000       0.00000000       0.00000000      -2.67353058
Sr       0.00000000       0.00000000       2.88424242       0.00000000       0.00000000       2.67353058
2
Properties=species:S:1:pos:R:3:forces:R:3 energy=-25.650854305122838 pbc="F F F"
Sr       0.00000000       0.00000000       0.00000000       0.00000000       0.00000000      -2.44774628
Sr       0.00000000       0.00000000       2.94303030       0.00000000       0.00000000       2.44774628
2
Properties=species:S:1:pos:R:3:forces:R:3 energy=-25.78748583820706 pbc="F F F"
Sr       0.00000000       0.00000000       0.00000000       0.00000000       0.00000000      -2.19714355
Sr       0.00000000       0.00000000       3.00181818       0.00000000       0.00000000       2.19714355
2
Properties=species:S:1:pos:R:3:forces:R:3 energy=-25.908943982093447 pbc="F F F"
Sr       0.00000000       0.00000000       0.00000000       0.00000000       0.00000000      -1.93456101
Sr       0.00000000       0.00000000       3.06060606       0.00000000       0.00000000       1.93456101
2
Properties=species:S:1:pos:R:3:forces:R:3 energy=-26.01508016949708 pbc="F F F"
Sr       0.00000000       0.00000000       0.00000000       0.00000000       0.00000000      -1.67890549
Sr       0.00000000       0.00000000       3.11939394       0.00000000       0.00000000       1.67890549
2
Properties=species:S:1:pos:R:3:forces:R:3 energy=-26.106817908784492 pbc="F F F"
Sr       0.00000000       0.00000000       0.00000000       0.00000000       0.00000000      -1.44714797
Sr       0.00000000       0.00000000       3.17818182       0.00000000       0.00000000       1.44714797
2
Properties=species:S:1:pos:R:3:forces:R:3 energy=-26.185920058930087 pbc="F F F"
Sr       0.00000000       0.00000000       0.00000000       0.00000000       0.00000000      -1.25039542
Sr       0.00000000       0.00000000       3.23696970       0.00000000       0.00000000       1.25039542
2
Properties=species:S:1:pos:R:3:forces:R:3 energy=-26.254624579780227 pbc="F F F"
Sr       0.00000000       0.00000000       0.00000000       0.00000000       0.00000000      -1.09383523
Sr       0.00000000       0.00000000       3.29575758       0.00000000       0.00000000       1.09383523
2
Properties=species:S:1:pos:R:3:forces:R:3 energy=-26.315326066604094 pbc="F F F"
Sr       0.00000000       0.00000000       0.00000000       0.00000000       0.00000000      -0.97788990
Sr       0.00000000       0.00000000       3.35454545       0.00000000       0.00000000       0.97788990
2
Properties=species:S:1:pos:R:3:forces:R:3 energy=-26.370322083812898 pbc="F F F"
Sr       0.00000000       0.00000000       0.00000000       0.00000000       0.00000000      -0.89867032
Sr       0.00000000       0.00000000       3.41333333       0.00000000       0.00000000       0.89867032
2
Properties=species:S:1:pos:R:3:forces:R:3 energy=-26.42155375921018 pbc="F F F"
Sr       0.00000000       0.00000000       0.00000000       0.00000000       0.00000000      -0.84819788
Sr       0.00000000       0.00000000       3.47212121       0.00000000       0.00000000       0.84819788
2
Properties=species:S:1:pos:R:3:forces:R:3 energy=-26.470403647802325 pbc="F F F"
Sr       0.00000000       0.00000000       0.00000000       0.00000000       0.00000000      -0.81580091
Sr       0.00000000       0.00000000       3.53090909       0.00000000       0.00000000       0.81580091
2
Properties=species:S:1:pos:R:3:forces:R:3 energy=-26.51761743863777 pbc="F F F"
Sr       0.00000000       0.00000000       0.00000000       0.00000000       0.00000000      -0.79086053
Sr       0.00000000       0.00000000       3.58969697       0.00000000       0.00000000       0.79086053
2
Properties=species:S:1:pos:R:3:forces:R:3 energy=-26.56337828596682 pbc="F F F"
Sr       0.00000000       0.00000000       0.00000000       0.00000000       0.00000000      -0.76548463
Sr       0.00000000       0.00000000       3.64848485       0.00000000       0.00000000       0.76548463
2
Properties=species:S:1:pos:R:3:forces:R:3 energy=-26.607527925466663 pbc="F F F"
Sr       0.00000000       0.00000000       0.00000000       0.00000000       0.00000000      -0.73556846
Sr       0.00000000       0.00000000       3.70727273       0.00000000       0.00000000       0.73556846
2
Properties=species:S:1:pos:R:3:forces:R:3 energy=-26.649753481949734 pbc="F F F"
Sr       0.00000000       0.00000000       0.00000000       0.00000000       0.00000000      -0.70003599
Sr       0.00000000       0.00000000       3.76606061       0.00000000       0.00000000       0.70003599
2
Properties=species:S:1:pos:R:3:forces:R:3 energy=-26.689734362134914 pbc="F F F"
Sr       0.00000000       0.00000000       0.00000000       0.00000000       0.00000000      -0.65931171
Sr       0.00000000       0.00000000       3.82484848       0.00000000       0.00000000       0.65931171
2
Properties=species:S:1:pos:R:3:forces:R:3 energy=-26.727184495085805 pbc="F F F"
Sr       0.00000000       0.00000000       0.00000000       0.00000000       0.00000000      -0.61404973
Sr       0.00000000       0.00000000       3.88363636       0.00000000       0.00000000       0.61404973
2
Properties=species:S:1:pos:R:3:forces:R:3 energy=-26.761849388664544 pbc="F F F"
Sr       0.00000000       0.00000000       0.00000000       0.00000000       0.00000000      -0.56468898
Sr       0.00000000       0.00000000       3.94242424       0.00000000       0.00000000       0.56468898
2
Properties=species:S:1:pos:R:3:forces:R:3 energy=-26.793503920920394 pbc="F F F"
Sr       0.00000000       0.00000000       0.00000000       0.00000000       0.00000000      -0.51164234
Sr       0.00000000       0.00000000       4.00121212       0.00000000       0.00000000       0.51164234
2
Properties=species:S:1:pos:R:3:forces:R:3 energy=-26.821949092112906 pbc="F F F"
Sr       0.00000000       0.00000000       0.00000000       0.00000000       0.00000000      -0.45568714
Sr       0.00000000       0.00000000       4.06000000       0.00000000       0.00000000       0.45568714
2
Properties=species:S:1:pos:R:3:forces:R:3 energy=-26.847051202491013 pbc="F F F"
Sr       0.00000000       0.00000000       0.00000000       0.00000000       0.00000000      -0.39818075
Sr       0.00000000       0.00000000       4.11878788       0.00000000       0.00000000       0.39818075
2
Properties=species:S:1:pos:R:3:forces:R:3 energy=-26.868770769481564 pbc="F F F"
Sr       0.00000000       0.00000000       0.00000000       0.00000000       0.00000000      -0.34094343
Sr       0.00000000       0.00000000       4.17757576       0.00000000       0.00000000       0.34094343
2
Properties=species:S:1:pos:R:3:forces:R:3 energy=-26.887182284161018 pbc="F F F"
Sr       0.00000000       0.00000000       0.00000000       0.00000000       0.00000000      -0.28586668
Sr       0.00000000       0.00000000       4.23636364       0.00000000       0.00000000       0.28586668
2
Properties=species:S:1:pos:R:3:forces:R:3 energy=-26.90245397170546 pbc="F F F"
Sr       0.00000000       0.00000000       0.00000000       0.00000000       0.00000000      -0.23437777
Sr       0.00000000       0.00000000       4.29515152       0.00000000       0.00000000       0.23437777
2
Properties=species:S:1:pos:R:3:forces:R:3 energy=-26.91482029975119 pbc="F F F"
Sr       0.00000000       0.00000000       0.00000000       0.00000000       0.00000000      -0.18701054
Sr       0.00000000       0.00000000       4.35393939       0.00000000       0.00000000       0.18701054
2
Properties=species:S:1:pos:R:3:forces:R:3 energy=-26.92451482937093 pbc="F F F"
Sr       0.00000000       0.00000000       0.00000000       0.00000000       0.00000000      -0.14335988
Sr       0.00000000       0.00000000       4.41272727       0.00000000       0.00000000       0.14335988
2
Properties=species:S:1:pos:R:3:forces:R:3 energy=-26.931732876230075 pbc="F F F"
Sr       0.00000000       0.00000000       0.00000000       0.00000000       0.00000000      -0.10264084
Sr       0.00000000       0.00000000       4.47151515       0.00000000       0.00000000       0.10264084
2
Properties=species:S:1:pos:R:3:forces:R:3 energy=-26.93663220525509 pbc="F F F"
Sr       0.00000000       0.00000000       0.00000000       0.00000000       0.00000000      -0.06448509
Sr       0.00000000       0.00000000       4.53030303       0.00000000       0.00000000       0.06448509
2
Properties=species:S:1:pos:R:3:forces:R:3 energy=-26.939372042668374 pbc="F F F"
Sr       0.00000000       0.00000000       0.00000000       0.00000000       0.00000000      -0.02925094
Sr       0.00000000       0.00000000       4.58909091       0.00000000       0.00000000       0.02925094
2
Properties=species:S:1:pos:R:3:forces:R:3 energy=-26.940141959551205 pbc="F F F"
Sr       0.00000000       0.00000000       0.00000000       0.00000000       0.00000000       0.00235898
Sr       0.00000000       0.00000000       4.64787879       0.00000000       0.00000000      -0.00235898
2
Properties=species:S:1:pos:R:3:forces:R:3 energy=-26.939175197941598 pbc="F F F"
Sr       0.00000000       0.00000000       0.00000000       0.00000000       0.00000000       0.02980280
Sr       0.00000000       0.00000000       4.70666667       0.00000000       0.00000000      -0.02980280
2
Properties=species:S:1:pos:R:3:forces:R:3 energy=-26.936721543494446 pbc="F F F"
Sr       0.00000000       0.00000000       0.00000000       0.00000000       0.00000000       0.05297922
Sr       0.00000000       0.00000000       4.76545455       0.00000000       0.00000000      -0.05297922
2
Properties=species:S:1:pos:R:3:forces:R:3 energy=-26.933022308230917 pbc="F F F"
Sr       0.00000000       0.00000000       0.00000000       0.00000000       0.00000000       0.07232250
Sr       0.00000000       0.00000000       4.82424242       0.00000000       0.00000000      -0.07232250
2
Properties=species:S:1:pos:R:3:forces:R:3 energy=-26.92827634864171 pbc="F F F"
Sr       0.00000000       0.00000000       0.00000000       0.00000000       0.00000000       0.08881562
Sr       0.00000000       0.00000000       4.88303030       0.00000000       0.00000000      -0.08881562
2
Properties=species:S:1:pos:R:3:forces:R:3 energy=-26.922605692869354 pbc="F F F"
Sr       0.00000000       0.00000000       0.00000000       0.00000000       0.00000000       0.10397284
Sr       0.00000000       0.00000000       4.94181818       0.00000000       0.00000000      -0.10397284
2
Properties=species:S:1:pos:R:3:forces:R:3 energy=-26.916038149655172 pbc="F F F"
Sr       0.00000000       0.00000000       0.00000000       0.00000000       0.00000000       0.11970596
Sr       0.00000000       0.00000000       5.00060606       0.00000000       0.00000000      -0.11970596
2
Properties=species:S:1:pos:R:3:forces:R:3 energy=-26.90847993356039 pbc="F F F"
Sr       0.00000000       0.00000000       0.00000000       0.00000000       0.00000000       0.13807887
Sr       0.00000000       0.00000000       5.05939394       0.00000000       0.00000000      -0.13807887
2
Properties=species:S:1:pos:R:3:forces:R:3 energy=-26.899718855282774 pbc="F F F"
Sr       0.00000000       0.00000000       0.00000000       0.00000000       0.00000000       0.16081302
Sr       0.00000000       0.00000000       5.11818182       0.00000000       0.00000000      -0.16081302
2
Properties=species:S:1:pos:R:3:forces:R:3 energy=-26.889477065023797 pbc="F F F"
Sr       0.00000000       0.00000000       0.00000000       0.00000000       0.00000000       0.18827602
Sr       0.00000000       0.00000000       5.17696970       0.00000000       0.00000000      -0.18827602
2
Properties=species:S:1:pos:R:3:forces:R:3 energy=-26.877543410318154 pbc="F F F"
Sr       0.00000000       0.00000000       0.00000000       0.00000000       0.00000000       0.21758257
Sr       0.00000000       0.00000000       5.23575758       0.00000000       0.00000000      -0.21758257
2
Properties=species:S:1:pos:R:3:forces:R:3 energy=-26.86401445571456 pbc="F F F"
Sr       0.00000000       0.00000000       0.00000000       0.00000000       0.00000000       0.24070904
Sr       0.00000000       0.00000000       5.29454545       0.00000000       0.00000000      -0.24070904
2
Properties=species:S:1:pos:R:3:forces:R:3 energy=-26.849542827740134 pbc="F F F"
Sr       0.00000000       0.00000000       0.00000000       0.00000000       0.00000000       0.24905036
Sr       0.00000000       0.00000000       5.35333333       0.00000000       0.00000000      -0.24905036
2
Properties=species:S:1:pos:R:3:forces:R:3 energy=-26.83483774932001 pbc="F F F"
Sr       0.00000000       0.00000000       0.00000000       0.00000000       0.00000000       0.25324646
Sr       0.00000000       0.00000000       5.41212121       0.00000000       0.00000000      -0.25324646
2
Properties=species:S:1:pos:R:3:forces:R:3 energy=-26.819133663740566 pbc="F F F"
Sr       0.00000000       0.00000000       0.00000000       0.00000000       0.00000000       0.28826648
Sr       0.00000000       0.00000000       5.47090909       0.00000000       0.00000000      -0.28826648
2
Properties=species:S:1:pos:R:3:forces:R:3 energy=-26.80040783078468 pbc="F F F"
Sr       0.00000000       0.00000000       0.00000000       0.00000000       0.00000000       0.34783697
Sr       0.00000000       0.00000000       5.52969697       0.00000000       0.00000000      -0.34783697
2
Properties=species:S:1:pos:R:3:forces:R:3 energy=-26.77900432081228 pbc="F F F"
Sr       0.00000000       0.00000000       0.00000000       0.00000000       0.00000000       0.37097654
Sr       0.00000000       0.00000000       5.58848485       0.00000000       0.00000000      -0.37097654
2
Properties=species:S:1:pos:R:3:forces:R:3 energy=-26.757575023169103 pbc="F F F"
Sr       0.00000000       0.00000000       0.00000000       0.00000000       0.00000000       0.35715634
Sr       0.00000000       0.00000000       5.64727273       0.00000000       0.00000000      -0.35715634
2
Properties=species:S:1:pos:R:3:forces:R:3 energy=-26.736179667548964 pbc="F F F"
Sr       0.00000000       0.00000000       0.00000000       0.00000000       0.00000000       0.38476130
Sr       0.00000000       0.00000000       5.70606061       0.00000000       0.00000000      -0.38476130
2
Properties=species:S:1:pos:R:3:forces:R:3 energy=-26.710809583669327 pbc="F F F"
Sr       0.00000000       0.00000000       0.00000000       0.00000000       0.00000000       0.48015124
Sr       0.00000000       0.00000000       5.76484848       0.00000000       0.00000000      -0.48015124
2
Properties=species:S:1:pos:R:3:forces:R:3 energy=-26.681364271267572 pbc="F F F"
Sr       0.00000000       0.00000000       0.00000000       0.00000000       0.00000000       0.49375921
Sr       0.00000000       0.00000000       5.82363636       0.00000000       0.00000000      -0.49375921
2
Properties=species:S:1:pos:R:3:forces:R:3 energy=-26.65667918693621 pbc="F F F"
Sr       0.00000000       0.00000000       0.00000000       0.00000000       0.00000000       0.32235906
Sr       0.00000000       0.00000000       5.88242424       0.00000000       0.00000000      -0.32235906
2
Properties=species:S:1:pos:R:3:forces:R:3 energy=-26.64443393082843 pbc="F F F"
Sr       0.00000000       0.00000000       0.00000000       0.00000000       0.00000000       0.10114297
Sr       0.00000000       0.00000000       5.94121212       0.00000000       0.00000000      -0.10114297
2
Properties=species:S:1:pos:R:3:forces:R:3 energy=-26.642132490008226 pbc="F F F"
Sr       0.00000000       0.00000000       0.00000000       0.00000000       0.00000000       0.00784460
Sr       0.00000000       0.00000000       6.00000000       0.00000000       0.00000000      -0.00784460
