2
Properties=species:S:1:pos:R:3:forces:R:3 energy=397707.1437573148 pbc="F F F"
Ta       0.00000000       0.00000000       0.00000000       0.00000000       0.00000000 -341095.75000000
Ta       0.00000000       0.00000000       0.18000000       0.00000000       0.00000000  341095.75000000
2
Properties=species:S:1:pos:R:3:forces:R:3 energy=379876.5187573148 pbc="F F F"
Ta       0.00000000       0.00000000       0.00000000       0.00000000       0.00000000 -318251.28125000
Ta       0.00000000       0.00000000       0.23878788       0.00000000       0.00000000  318251.28125000
2
Properties=species:S:1:pos:R:3:forces:R:3 energy=359954.6750073148 pbc="F F F"
Ta       0.00000000       0.00000000       0.00000000       0.00000000       0.00000000 -371523.56250000
Ta       0.00000000       0.00000000       0.29757576       0.00000000       0.00000000  371523.56250000
2
Properties=species:S:1:pos:R:3:forces:R:3 energy=331448.3000073148 pbc="F F F"
Ta       0.00000000       0.00000000       0.00000000       0.00000000       0.00000000 -613277.18750000
Ta       0.00000000       0.00000000       0.35636364       0.00000000       0.00000000  613277.18750000
2
Properties=species:S:1:pos:R:3:forces:R:3 energy=286743.8937573148 pbc="F F F"
Ta       0.00000000       0.00000000       0.00000000       0.00000000       0.00000000 -909919.25000000
Ta       0.00000000       0.00000000       0.41515152       0.00000000       0.00000000  909919.25000000
2
Properties=species:S:1:pos:R:3:forces:R:3 energy=225389.7218823148 pbc="F F F"
Ta       0.00000000       0.00000000       0.00000000       0.00000000       0.00000000 -1157877.87500000
Ta       0.00000000       0.00000000       0.47393939       0.00000000       0.00000000 1157877.87500000
2
Properties=species:S:1:pos:R:3:forces:R:3 energy=154280.8781323164 pbc="F F F"
Ta       0.00000000       0.00000000       0.00000000       0.00000000       0.00000000 -1219585.12500000
Ta       0.00000000       0.00000000       0.53272727       0.00000000       0.00000000 1219585.12500000
2
Properties=species:S:1:pos:R:3:forces:R:3 energy=87424.15938231797 pbc="F F F"
Ta       0.00000000       0.00000000       0.00000000       0.00000000       0.00000000 -1010589.68750000
Ta       0.00000000       0.00000000       0.59151515       0.00000000       0.00000000 1010589.68750000
2
Properties=species:S:1:pos:R:3:forces:R:3 energy=39220.91328857114 pbc="F F F"
Ta       0.00000000       0.00000000       0.00000000       0.00000000       0.00000000 -615984.31250000
Ta       0.00000000       0.00000000       0.65030303       0.00000000       0.00000000  615984.31250000
2
Properties=species:S:1:pos:R:3:forces:R:3 energy=13994.4298901376 pbc="F F F"
Ta       0.00000000       0.00000000       0.00000000       0.00000000       0.00000000 -268901.93750000
Ta       0.00000000       0.00000000       0.70909091       0.00000000       0.00000000  268901.93750000
2
Properties=species:S:1:pos:R:3:forces:R:3 energy=4500.540241707228 pbc="F F F"
Ta       0.00000000       0.00000000       0.00000000       0.00000000       0.00000000  -52985.86328125
Ta       0.00000000       0.00000000       0.76787879       0.00000000       0.00000000   52985.86328125
2
Properties=species:S:1:pos:R:3:forces:R:3 energy=726.1105542167313 pbc="F F F"
Ta       0.00000000       0.00000000       0.00000000       0.00000000       0.00000000  -39935.41015625
Ta       0.00000000       0.00000000       0.82666667       0.00000000       0.00000000   39935.41015625
2
Properties=species:S:1:pos:R:3:forces:R:3 energy=-68.6416048884578 pbc="F F F"
Ta       0.00000000       0.00000000       0.00000000       0.00000000       0.00000000   -8389.47949219
Ta       0.00000000       0.00000000       0.88545455       0.00000000       0.00000000    8389.47949219
2
Properties=species:S:1:pos:R:3:forces:R:3 energy=-160.32459589649096 pbc="F F F"
Ta       0.00000000       0.00000000       0.00000000       0.00000000       0.00000000    -919.84539795
Ta       0.00000000       0.00000000       0.94424242       0.00000000       0.00000000     919.84539795
2
Properties=species:S:1:pos:R:3:forces:R:3 energy=-200.69651359417384 pbc="F F F"
Ta       0.00000000       0.00000000       0.00000000       0.00000000       0.00000000    -263.72848511
Ta       0.00000000       0.00000000       1.00303030       0.00000000       0.00000000     263.72848511
2
Properties=species:S:1:pos:R:3:forces:R:3 energy=-195.5305131923249 pbc="F F F"
Ta       0.00000000       0.00000000       0.00000000       0.00000000       0.00000000     287.91424561
Ta       0.00000000       0.00000000       1.06181818       0.00000000       0.00000000    -287.91424561
2
Properties=species:S:1:pos:R:3:forces:R:3 energy=-170.84673628854685 pbc="F F F"
Ta       0.00000000       0.00000000       0.00000000       0.00000000       0.00000000     514.99249268
Ta       0.00000000       0.00000000       1.12060606       0.00000000       0.00000000    -514.99249268
2
Properties=species:S:1:pos:R:3:forces:R:3 energy=-141.0188706261884 pbc="F F F"
Ta       0.00000000       0.00000000       0.00000000       0.00000000       0.00000000     459.79898071
Ta       0.00000000       0.00000000       1.17939394       0.00000000       0.00000000    -459.79898071
2
Properties=species:S:1:pos:R:3:forces:R:3 energy=-118.62382812755925 pbc="F F F"
Ta       0.00000000       0.00000000       0.00000000       0.00000000       0.00000000     304.73577881
Ta       0.00000000       0.00000000       1.23818182       0.00000000       0.00000000    -304.73577881
2
Properties=species:S:1:pos:R:3:forces:R:3 energy=-104.10213002735011 pbc="F F F"
Ta       0.00000000       0.00000000       0.00000000       0.00000000       0.00000000     200.26251221
Ta       0.00000000       0.00000000       1.29696970       0.00000000       0.00000000    -200.26251221
2
Properties=species:S:1:pos:R:3:forces:R:3 energy=-94.51116462884917 pbc="F F F"
Ta       0.00000000       0.00000000       0.00000000       0.00000000       0.00000000     118.37052917
Ta       0.00000000       0.00000000       1.35575758       0.00000000       0.00000000    -118.37052917
2
Properties=species:S:1:pos:R:3:forces:R:3 energy=-90.3085353811026 pbc="F F F"
Ta       0.00000000       0.00000000       0.00000000       0.00000000       0.00000000      38.90760040
Ta       0.00000000       0.00000000       1.41454545       0.00000000       0.00000000     -38.90760040
2
Properties=species:S:1:pos:R:3:forces:R:3 energy=-88.32621249024261 pbc="F F F"
Ta       0.00000000       0.00000000       0.00000000       0.00000000       0.00000000      38.02742004
Ta       0.00000000       0.00000000       1.47333333       0.00000000       0.00000000     -38.02742004
2
Properties=species:S:1:pos:R:3:forces:R:3 energy=-85.69391854831626 pbc="F F F"
Ta       0.00000000       0.00000000       0.00000000       0.00000000       0.00000000      44.80525589
Ta       0.00000000       0.00000000       1.53212121       0.00000000       0.00000000     -44.80525589
2
Properties=species:S:1:pos:R:3:forces:R:3 energy=-83.76563456071864 pbc="F F F"
Ta       0.00000000       0.00000000       0.00000000       0.00000000       0.00000000      18.79557419
Ta       0.00000000       0.00000000       1.59090909       0.00000000       0.00000000     -18.79557419
2
Properties=species:S:1:pos:R:3:forces:R:3 energy=-83.36913457134155 pbc="F F F"
Ta       0.00000000       0.00000000       0.00000000       0.00000000       0.00000000      -2.65100431
Ta       0.00000000       0.00000000       1.64969697       0.00000000       0.00000000       2.65100431
2
Properties=species:S:1:pos:R:3:forces:R:3 energy=-83.73336143860743 pbc="F F F"
Ta       0.00000000       0.00000000       0.00000000       0.00000000       0.00000000      -7.39804983
Ta       0.00000000       0.00000000       1.70848485       0.00000000       0.00000000       7.39804983
2
Properties=species:S:1:pos:R:3:forces:R:3 energy=-84.09304111308082 pbc="F F F"
Ta       0.00000000       0.00000000       0.00000000       0.00000000       0.00000000      -4.54009867
Ta       0.00000000       0.00000000       1.76727273       0.00000000       0.00000000       4.54009867
2
Properties=species:S:1:pos:R:3:forces:R:3 energy=-84.29145055170994 pbc="F F F"
Ta       0.00000000       0.00000000       0.00000000       0.00000000       0.00000000      -2.66620231
Ta       0.00000000       0.00000000       1.82606061       0.00000000       0.00000000       2.66620231
2
Properties=species:S:1:pos:R:3:forces:R:3 energy=-84.45948726775595 pbc="F F F"
Ta       0.00000000       0.00000000       0.00000000       0.00000000       0.00000000      -3.38765407
Ta       0.00000000       0.00000000       1.88484848       0.00000000       0.00000000       3.38765407
2
Properties=species:S:1:pos:R:3:forces:R:3 energy=-84.70493172884916 pbc="F F F"
Ta       0.00000000       0.00000000       0.00000000       0.00000000       0.00000000      -4.87638807
Ta       0.00000000       0.00000000       1.94363636       0.00000000       0.00000000       4.87638807
2
Properties=species:S:1:pos:R:3:forces:R:3 energy=-85.00684887322802 pbc="F F F"
Ta       0.00000000       0.00000000       0.00000000       0.00000000       0.00000000      -5.12431765
Ta       0.00000000       0.00000000       2.00242424       0.00000000       0.00000000       5.12431765
2
Properties=species:S:1:pos:R:3:forces:R:3 energy=-85.28132305063194 pbc="F F F"
Ta       0.00000000       0.00000000       0.00000000       0.00000000       0.00000000      -4.06827259
Ta       0.00000000       0.00000000       2.06121212       0.00000000       0.00000000       4.06827259
2
Properties=species:S:1:pos:R:3:forces:R:3 energy=-85.47682539850503 pbc="F F F"
Ta       0.00000000       0.00000000       0.00000000       0.00000000       0.00000000      -2.56884623
Ta       0.00000000       0.00000000       2.12000000       0.00000000       0.00000000       2.56884623
2
Properties=species:S:1:pos:R:3:forces:R:3 energy=-85.58529183848097 pbc="F F F"
Ta       0.00000000       0.00000000       0.00000000       0.00000000       0.00000000      -1.15432715
Ta       0.00000000       0.00000000       2.17878788       0.00000000       0.00000000       1.15432715
2
Properties=species:S:1:pos:R:3:forces:R:3 energy=-85.61683165885458 pbc="F F F"
Ta       0.00000000       0.00000000       0.00000000       0.00000000       0.00000000       0.04553359
Ta       0.00000000       0.00000000       2.23757576       0.00000000       0.00000000      -0.04553359
2
Properties=species:S:1:pos:R:3:forces:R:3 energy=-85.58388131282547 pbc="F F F"
Ta       0.00000000       0.00000000       0.00000000       0.00000000       0.00000000       1.04379821
Ta       0.00000000       0.00000000       2.29636364       0.00000000       0.00000000      -1.04379821
2
Properties=species:S:1:pos:R:3:forces:R:3 energy=-85.49778665803238 pbc="F F F"
Ta       0.00000000       0.00000000       0.00000000       0.00000000       0.00000000       1.85393643
Ta       0.00000000       0.00000000       2.35515152       0.00000000       0.00000000      -1.85393643
2
Properties=species:S:1:pos:R:3:forces:R:3 energy=-85.36952025031178 pbc="F F F"
Ta       0.00000000       0.00000000       0.00000000       0.00000000       0.00000000       2.47991657
Ta       0.00000000       0.00000000       2.41393939       0.00000000       0.00000000      -2.47991657
2
Properties=species:S:1:pos:R:3:forces:R:3 energy=-85.20953668614492 pbc="F F F"
Ta       0.00000000       0.00000000       0.00000000       0.00000000       0.00000000       2.93516445
Ta       0.00000000       0.00000000       2.47272727       0.00000000       0.00000000      -2.93516445
2
Properties=species:S:1:pos:R:3:forces:R:3 energy=-85.02785691247188 pbc="F F F"
Ta       0.00000000       0.00000000       0.00000000       0.00000000       0.00000000       3.21266270
Ta       0.00000000       0.00000000       2.53151515       0.00000000       0.00000000      -3.21266270
2
Properties=species:S:1:pos:R:3:forces:R:3 energy=-84.83646428343854 pbc="F F F"
Ta       0.00000000       0.00000000       0.00000000       0.00000000       0.00000000       3.25255632
Ta       0.00000000       0.00000000       2.59030303       0.00000000       0.00000000      -3.25255632
2
Properties=species:S:1:pos:R:3:forces:R:3 energy=-84.65112114745851 pbc="F F F"
Ta       0.00000000       0.00000000       0.00000000       0.00000000       0.00000000       3.00782466
Ta       0.00000000       0.00000000       2.64909091       0.00000000       0.00000000      -3.00782466
2
Properties=species:S:1:pos:R:3:forces:R:3 energy=-84.48662415735414 pbc="F F F"
Ta       0.00000000       0.00000000       0.00000000       0.00000000       0.00000000       2.57464123
Ta       0.00000000       0.00000000       2.70787879       0.00000000       0.00000000      -2.57464123
2
Properties=species:S:1:pos:R:3:forces:R:3 energy=-84.34743644776391 pbc="F F F"
Ta       0.00000000       0.00000000       0.00000000       0.00000000       0.00000000       2.18889928
Ta       0.00000000       0.00000000       2.76666667       0.00000000       0.00000000      -2.18889928
2
Properties=species:S:1:pos:R:3:forces:R:3 energy=-84.22450711846606 pbc="F F F"
Ta       0.00000000       0.00000000       0.00000000       0.00000000       0.00000000       2.03839445
Ta       0.00000000       0.00000000       2.82545455       0.00000000       0.00000000      -2.03839445
2
Properties=species:S:1:pos:R:3:forces:R:3 energy=-84.10309118479111 pbc="F F F"
Ta       0.00000000       0.00000000       0.00000000       0.00000000       0.00000000       2.12144876
Ta       0.00000000       0.00000000       2.88424242       0.00000000       0.00000000      -2.12144876
2
Properties=species:S:1:pos:R:3:forces:R:3 energy=-83.97335050792093 pbc="F F F"
Ta       0.00000000       0.00000000       0.00000000       0.00000000       0.00000000       2.29226017
Ta       0.00000000       0.00000000       2.94303030       0.00000000       0.00000000      -2.29226017
2
Properties=species:S:1:pos:R:3:forces:R:3 energy=-83.83507878436681 pbc="F F F"
Ta       0.00000000       0.00000000       0.00000000       0.00000000       0.00000000       2.38925076
Ta       0.00000000       0.00000000       3.00181818       0.00000000       0.00000000      -2.38925076
2
Properties=species:S:1:pos:R:3:forces:R:3 energy=-83.69560062318946 pbc="F F F"
Ta       0.00000000       0.00000000       0.00000000       0.00000000       0.00000000       2.32827735
Ta       0.00000000       0.00000000       3.06060606       0.00000000       0.00000000      -2.32827735
2
Properties=species:S:1:pos:R:3:forces:R:3 energy=-83.564092931364 pbc="F F F"
Ta       0.00000000       0.00000000       0.00000000       0.00000000       0.00000000       2.12880111
Ta       0.00000000       0.00000000       3.11939394       0.00000000       0.00000000      -2.12880111
2
Properties=species:S:1:pos:R:3:forces:R:3 energy=-83.44635474680376 pbc="F F F"
Ta       0.00000000       0.00000000       0.00000000       0.00000000       0.00000000       1.87571633
Ta       0.00000000       0.00000000       3.17818182       0.00000000       0.00000000      -1.87571633
2
Properties=species:S:1:pos:R:3:forces:R:3 energy=-83.34286536187503 pbc="F F F"
Ta       0.00000000       0.00000000       0.00000000       0.00000000       0.00000000       1.65666652
Ta       0.00000000       0.00000000       3.23696970       0.00000000       0.00000000      -1.65666652
2
Properties=species:S:1:pos:R:3:forces:R:3 energy=-83.24973485925854 pbc="F F F"
Ta       0.00000000       0.00000000       0.00000000       0.00000000       0.00000000       1.53041005
Ta       0.00000000       0.00000000       3.29575758       0.00000000       0.00000000      -1.53041005
2
Properties=species:S:1:pos:R:3:forces:R:3 energy=-83.16048765149903 pbc="F F F"
Ta       0.00000000       0.00000000       0.00000000       0.00000000       0.00000000       1.52782238
Ta       0.00000000       0.00000000       3.35454545       0.00000000       0.00000000      -1.52782238
2
Properties=species:S:1:pos:R:3:forces:R:3 energy=-83.06754201723095 pbc="F F F"
Ta       0.00000000       0.00000000       0.00000000       0.00000000       0.00000000       1.65494108
Ta       0.00000000       0.00000000       3.41333333       0.00000000       0.00000000      -1.65494108
2
Properties=species:S:1:pos:R:3:forces:R:3 energy=-82.96377157921313 pbc="F F F"
Ta       0.00000000       0.00000000       0.00000000       0.00000000       0.00000000       1.88980842
Ta       0.00000000       0.00000000       3.47212121       0.00000000       0.00000000      -1.88980842
2
Properties=species:S:1:pos:R:3:forces:R:3 energy=-82.84424172271208 pbc="F F F"
Ta       0.00000000       0.00000000       0.00000000       0.00000000       0.00000000       2.18023038
Ta       0.00000000       0.00000000       3.53090909       0.00000000       0.00000000      -2.18023038
2
Properties=species:S:1:pos:R:3:forces:R:3 energy=-82.70778389462815 pbc="F F F"
Ta       0.00000000       0.00000000       0.00000000       0.00000000       0.00000000       2.45247698
Ta       0.00000000       0.00000000       3.58969697       0.00000000       0.00000000      -2.45247698
2
Properties=species:S:1:pos:R:3:forces:R:3 energy=-82.5576502697804 pbc="F F F"
Ta       0.00000000       0.00000000       0.00000000       0.00000000       0.00000000       2.63569450
Ta       0.00000000       0.00000000       3.64848485       0.00000000       0.00000000      -2.63569450
2
Properties=species:S:1:pos:R:3:forces:R:3 energy=-82.40046372332647 pbc="F F F"
Ta       0.00000000       0.00000000       0.00000000       0.00000000       0.00000000       2.68907261
Ta       0.00000000       0.00000000       3.70727273       0.00000000       0.00000000      -2.68907261
2
Properties=species:S:1:pos:R:3:forces:R:3 energy=-82.24405206474059 pbc="F F F"
Ta       0.00000000       0.00000000       0.00000000       0.00000000       0.00000000       2.61247873
Ta       0.00000000       0.00000000       3.76606061       0.00000000       0.00000000      -2.61247873
2
Properties=species:S:1:pos:R:3:forces:R:3 energy=-82.09525107788338 pbc="F F F"
Ta       0.00000000       0.00000000       0.00000000       0.00000000       0.00000000       2.43691373
Ta       0.00000000       0.00000000       3.82484848       0.00000000       0.00000000      -2.43691373
2
Properties=species:S:1:pos:R:3:forces:R:3 energy=-81.95860775043083 pbc="F F F"
Ta       0.00000000       0.00000000       0.00000000       0.00000000       0.00000000       2.20597434
Ta       0.00000000       0.00000000       3.88363636       0.00000000       0.00000000      -2.20597434
2
Properties=species:S:1:pos:R:3:forces:R:3 energy=-81.83616650827548 pbc="F F F"
Ta       0.00000000       0.00000000       0.00000000       0.00000000       0.00000000       1.95977414
Ta       0.00000000       0.00000000       3.94242424       0.00000000       0.00000000      -1.95977414
2
Properties=species:S:1:pos:R:3:forces:R:3 energy=-81.72793476856776 pbc="F F F"
Ta       0.00000000       0.00000000       0.00000000       0.00000000       0.00000000       1.72624815
Ta       0.00000000       0.00000000       4.00121212       0.00000000       0.00000000      -1.72624815
2
Properties=species:S:1:pos:R:3:forces:R:3 energy=-81.63266108093747 pbc="F F F"
Ta       0.00000000       0.00000000       0.00000000       0.00000000       0.00000000       1.52015245
Ta       0.00000000       0.00000000       4.06000000       0.00000000       0.00000000      -1.52015245
2
Properties=species:S:1:pos:R:3:forces:R:3 energy=-81.54855229216349 pbc="F F F"
Ta       0.00000000       0.00000000       0.00000000       0.00000000       0.00000000       1.34689319
Ta       0.00000000       0.00000000       4.11878788       0.00000000       0.00000000      -1.34689319
2
Properties=species:S:1:pos:R:3:forces:R:3 energy=-81.47364740234512 pbc="F F F"
Ta       0.00000000       0.00000000       0.00000000       0.00000000       0.00000000       1.20677769
Ta       0.00000000       0.00000000       4.17757576       0.00000000       0.00000000      -1.20677769
2
Properties=species:S:1:pos:R:3:forces:R:3 energy=-81.40606172294994 pbc="F F F"
Ta       0.00000000       0.00000000       0.00000000       0.00000000       0.00000000       1.09738886
Ta       0.00000000       0.00000000       4.23636364       0.00000000       0.00000000      -1.09738886
2
Properties=species:S:1:pos:R:3:forces:R:3 energy=-81.34410888218602 pbc="F F F"
Ta       0.00000000       0.00000000       0.00000000       0.00000000       0.00000000       1.01404142
Ta       0.00000000       0.00000000       4.29515152       0.00000000       0.00000000      -1.01404142
2
Properties=species:S:1:pos:R:3:forces:R:3 energy=-81.28646114524126 pbc="F F F"
Ta       0.00000000       0.00000000       0.00000000       0.00000000       0.00000000       0.94963682
Ta       0.00000000       0.00000000       4.35393939       0.00000000       0.00000000      -0.94963682
2
Properties=species:S:1:pos:R:3:forces:R:3 energy=-81.23227137689 pbc="F F F"
Ta       0.00000000       0.00000000       0.00000000       0.00000000       0.00000000       0.89479780
Ta       0.00000000       0.00000000       4.41272727       0.00000000       0.00000000      -0.89479780
2
Properties=species:S:1:pos:R:3:forces:R:3 energy=-81.18127231707264 pbc="F F F"
Ta       0.00000000       0.00000000       0.00000000       0.00000000       0.00000000       0.83900654
Ta       0.00000000       0.00000000       4.47151515       0.00000000       0.00000000      -0.83900654
2
Properties=species:S:1:pos:R:3:forces:R:3 energy=-81.13382994864347 pbc="F F F"
Ta       0.00000000       0.00000000       0.00000000       0.00000000       0.00000000       0.77256715
Ta       0.00000000       0.00000000       4.53030303       0.00000000       0.00000000      -0.77256715
2
Properties=species:S:1:pos:R:3:forces:R:3 energy=-81.09077564277146 pbc="F F F"
Ta       0.00000000       0.00000000       0.00000000       0.00000000       0.00000000       0.68913168
Ta       0.00000000       0.00000000       4.58909091       0.00000000       0.00000000      -0.68913168
2
Properties=species:S:1:pos:R:3:forces:R:3 energy=-81.05316202148312 pbc="F F F"
Ta       0.00000000       0.00000000       0.00000000       0.00000000       0.00000000       0.58779413
Ta       0.00000000       0.00000000       4.64787879       0.00000000       0.00000000      -0.58779413
2
Properties=species:S:1:pos:R:3:forces:R:3 energy=-81.02191966817061 pbc="F F F"
Ta       0.00000000       0.00000000       0.00000000       0.00000000       0.00000000       0.47370648
Ta       0.00000000       0.00000000       4.70666667       0.00000000       0.00000000      -0.47370648
2
Properties=species:S:1:pos:R:3:forces:R:3 energy=-80.99752141839338 pbc="F F F"
Ta       0.00000000       0.00000000       0.00000000       0.00000000       0.00000000       0.35674495
Ta       0.00000000       0.00000000       4.76545455       0.00000000       0.00000000      -0.35674495
2
Properties=species:S:1:pos:R:3:forces:R:3 energy=-80.97979924807369 pbc="F F F"
Ta       0.00000000       0.00000000       0.00000000       0.00000000       0.00000000       0.24849562
Ta       0.00000000       0.00000000       4.82424242       0.00000000       0.00000000      -0.24849562
2
Properties=species:S:1:pos:R:3:forces:R:3 energy=-80.96793666469297 pbc="F F F"
Ta       0.00000000       0.00000000       0.00000000       0.00000000       0.00000000       0.15887013
Ta       0.00000000       0.00000000       4.88303030       0.00000000       0.00000000      -0.15887013
2
Properties=species:S:1:pos:R:3:forces:R:3 energy=-80.96064416277518 pbc="F F F"
Ta       0.00000000       0.00000000       0.00000000       0.00000000       0.00000000       0.09331917
Ta       0.00000000       0.00000000       4.94181818       0.00000000       0.00000000      -0.09331917
2
Properties=species:S:1:pos:R:3:forces:R:3 energy=-80.95648731319423 pbc="F F F"
Ta       0.00000000       0.00000000       0.00000000       0.00000000       0.00000000       0.05189774
Ta       0.00000000       0.00000000       5.00060606       0.00000000       0.00000000      -0.05189774
2
Properties=species:S:1:pos:R:3:forces:R:3 energy=-80.95416141662534 pbc="F F F"
Ta       0.00000000       0.00000000       0.00000000       0.00000000       0.00000000       0.02999247
Ta       0.00000000       0.00000000       5.05939394       0.00000000       0.00000000      -0.02999247
2
Properties=species:S:1:pos:R:3:forces:R:3 energy=-80.95271275915437 pbc="F F F"
Ta       0.00000000       0.00000000       0.00000000       0.00000000       0.00000000       0.02080158
Ta       0.00000000       0.00000000       5.11818182       0.00000000       0.00000000      -0.02080158
2
Properties=species:S:1:pos:R:3:forces:R:3 energy=-80.95158438389312 pbc="F F F"
Ta       0.00000000       0.00000000       0.00000000       0.00000000       0.00000000       0.01855467
Ta       0.00000000       0.00000000       5.17696970       0.00000000       0.00000000      -0.01855467
2
Properties=species:S:1:pos:R:3:forces:R:3 energy=-80.95044063708 pbc="F F F"
Ta       0.00000000       0.00000000       0.00000000       0.00000000       0.00000000       0.02112453
Ta       0.00000000       0.00000000       5.23575758       0.00000000       0.00000000      -0.02112453
2
Properties=species:S:1:pos:R:3:forces:R:3 energy=-80.94897640629024 pbc="F F F"
Ta       0.00000000       0.00000000       0.00000000       0.00000000       0.00000000       0.02987650
Ta       0.00000000       0.00000000       5.29454545       0.00000000       0.00000000      -0.02987650
2
Properties=species:S:1:pos:R:3:forces:R:3 energy=-80.94680271277994 pbc="F F F"
Ta       0.00000000       0.00000000       0.00000000       0.00000000       0.00000000       0.04493270
Ta       0.00000000       0.00000000       5.35333333       0.00000000       0.00000000      -0.04493270
2
Properties=species:S:1:pos:R:3:forces:R:3 energy=-80.94372897849304 pbc="F F F"
Ta       0.00000000       0.00000000       0.00000000       0.00000000       0.00000000       0.05811803
Ta       0.00000000       0.00000000       5.41212121       0.00000000       0.00000000      -0.05811803
2
Properties=species:S:1:pos:R:3:forces:R:3 energy=-80.94025131998252 pbc="F F F"
Ta       0.00000000       0.00000000       0.00000000       0.00000000       0.00000000       0.05762700
Ta       0.00000000       0.00000000       5.47090909       0.00000000       0.00000000      -0.05762700
2
Properties=species:S:1:pos:R:3:forces:R:3 energy=-80.93706425686496 pbc="F F F"
Ta       0.00000000       0.00000000       0.00000000       0.00000000       0.00000000       0.05185887
Ta       0.00000000       0.00000000       5.52969697       0.00000000       0.00000000      -0.05185887
2
Properties=species:S:1:pos:R:3:forces:R:3 energy=-80.93393157647714 pbc="F F F"
Ta       0.00000000       0.00000000       0.00000000       0.00000000       0.00000000       0.05589318
Ta       0.00000000       0.00000000       5.58848485       0.00000000       0.00000000      -0.05589318
2
Properties=species:S:1:pos:R:3:forces:R:3 energy=-80.93053318241375 pbc="F F F"
Ta       0.00000000       0.00000000       0.00000000       0.00000000       0.00000000       0.05790269
Ta       0.00000000       0.00000000       5.64727273       0.00000000       0.00000000      -0.05790269
2
Properties=species:S:1:pos:R:3:forces:R:3 energy=-80.92739588382808 pbc="F F F"
Ta       0.00000000       0.00000000       0.00000000       0.00000000       0.00000000       0.04702269
Ta       0.00000000       0.00000000       5.70606061       0.00000000       0.00000000      -0.04702269
2
Properties=species:S:1:pos:R:3:forces:R:3 energy=-80.92504653659877 pbc="F F F"
Ta       0.00000000       0.00000000       0.00000000       0.00000000       0.00000000       0.03422976
Ta       0.00000000       0.00000000       5.76484848       0.00000000       0.00000000      -0.03422976
2
Properties=species:S:1:pos:R:3:forces:R:3 energy=-80.92311939545816 pbc="F F F"
Ta       0.00000000       0.00000000       0.00000000       0.00000000       0.00000000       0.03239194
Ta       0.00000000       0.00000000       5.82363636       0.00000000       0.00000000      -0.03239194
2
Properties=species:S:1:pos:R:3:forces:R:3 energy=-80.9213479281538 pbc="F F F"
Ta       0.00000000       0.00000000       0.00000000       0.00000000       0.00000000       0.02600156
Ta       0.00000000       0.00000000       5.88242424       0.00000000       0.00000000      -0.02600156
2
Properties=species:S:1:pos:R:3:forces:R:3 energy=-80.92023621008668 pbc="F F F"
Ta       0.00000000       0.00000000       0.00000000       0.00000000       0.00000000       0.01156322
Ta       0.00000000       0.00000000       5.94121212       0.00000000       0.00000000      -0.01156322
2
Properties=species:S:1:pos:R:3:forces:R:3 energy=-80.91983057357679 pbc="F F F"
Ta       0.00000000       0.00000000       0.00000000       0.00000000       0.00000000       0.00459006
Ta       0.00000000       0.00000000       6.00000000       0.00000000       0.00000000      -0.00459006
