2
Properties=species:S:1:pos:R:3:forces:R:3 energy=222356.78357910793 pbc="F F F"
Tb       0.00000000       0.00000000       0.00000000       0.00000000       0.00000000 -236837.46875000
Tb       0.00000000       0.00000000       0.18000000       0.00000000       0.00000000  236837.46875000
2
Properties=species:S:1:pos:R:3:forces:R:3 energy=212487.97107910793 pbc="F F F"
Tb       0.00000000       0.00000000       0.00000000       0.00000000       0.00000000 -133515.57812500
Tb       0.00000000       0.00000000       0.23878788       0.00000000       0.00000000  133515.57812500
2
Properties=species:S:1:pos:R:3:forces:R:3 energy=204229.43982910793 pbc="F F F"
Tb       0.00000000       0.00000000       0.00000000       0.00000000       0.00000000 -161081.09375000
Tb       0.00000000       0.00000000       0.29757576       0.00000000       0.00000000  161081.09375000
2
Properties=species:S:1:pos:R:3:forces:R:3 energy=192285.62732910793 pbc="F F F"
Tb       0.00000000       0.00000000       0.00000000       0.00000000       0.00000000 -254157.59375000
Tb       0.00000000       0.00000000       0.35636364       0.00000000       0.00000000  254157.59375000
2
Properties=species:S:1:pos:R:3:forces:R:3 energy=173500.97107910793 pbc="F F F"
Tb       0.00000000       0.00000000       0.00000000       0.00000000       0.00000000 -390124.43750000
Tb       0.00000000       0.00000000       0.41515152       0.00000000       0.00000000  390124.43750000
2
Properties=species:S:1:pos:R:3:forces:R:3 energy=146135.81482910793 pbc="F F F"
Tb       0.00000000       0.00000000       0.00000000       0.00000000       0.00000000 -539764.43750000
Tb       0.00000000       0.00000000       0.47393939       0.00000000       0.00000000  539764.43750000
2
Properties=species:S:1:pos:R:3:forces:R:3 energy=110720.85389161111 pbc="F F F"
Tb       0.00000000       0.00000000       0.00000000       0.00000000       0.00000000 -654056.50000000
Tb       0.00000000       0.00000000       0.53272727       0.00000000       0.00000000  654056.50000000
2
Properties=species:S:1:pos:R:3:forces:R:3 energy=71139.50232911427 pbc="F F F"
Tb       0.00000000       0.00000000       0.00000000       0.00000000       0.00000000 -671736.50000000
Tb       0.00000000       0.00000000       0.59151515       0.00000000       0.00000000  671736.50000000
2
Properties=species:S:1:pos:R:3:forces:R:3 energy=34486.197641617444 pbc="F F F"
Tb       0.00000000       0.00000000       0.00000000       0.00000000       0.00000000 -551741.12500000
Tb       0.00000000       0.00000000       0.65030303       0.00000000       0.00000000  551741.12500000
2
Properties=species:S:1:pos:R:3:forces:R:3 energy=8519.366586936278 pbc="F F F"
Tb       0.00000000       0.00000000       0.00000000       0.00000000       0.00000000 -319952.15625000
Tb       0.00000000       0.00000000       0.70909091       0.00000000       0.00000000  319952.15625000
2
Properties=species:S:1:pos:R:3:forces:R:3 energy=-3040.0357568042186 pbc="F F F"
Tb       0.00000000       0.00000000       0.00000000       0.00000000       0.00000000  -84100.71093750
Tb       0.00000000       0.00000000       0.76787879       0.00000000       0.00000000   84100.71093750
2
Properties=species:S:1:pos:R:3:forces:R:3 energy=-3692.962026322797 pbc="F F F"
Tb       0.00000000       0.00000000       0.00000000       0.00000000       0.00000000   37344.29687500
Tb       0.00000000       0.00000000       0.82666667       0.00000000       0.00000000  -37344.29687500
2
Properties=species:S:1:pos:R:3:forces:R:3 energy=-291.80455560066537 pbc="F F F"
Tb       0.00000000       0.00000000       0.00000000       0.00000000       0.00000000   19615.71093750
Tb       0.00000000       0.00000000       0.88545455       0.00000000       0.00000000  -19615.71093750
2
Properties=species:S:1:pos:R:3:forces:R:3 energy=-60.02845541346354 pbc="F F F"
Tb       0.00000000       0.00000000       0.00000000       0.00000000       0.00000000     546.61236572
Tb       0.00000000       0.00000000       0.94424242       0.00000000       0.00000000    -546.61236572
2
Properties=species:S:1:pos:R:3:forces:R:3 energy=-55.571492790000455 pbc="F F F"
Tb       0.00000000       0.00000000       0.00000000       0.00000000       0.00000000      -9.22736263
Tb       0.00000000       0.00000000       1.00303030       0.00000000       0.00000000       9.22736263
2
Properties=species:S:1:pos:R:3:forces:R:3 energy=-49.38726575273703 pbc="F F F"
Tb       0.00000000       0.00000000       0.00000000       0.00000000       0.00000000     -26.91052246
Tb       0.00000000       0.00000000       1.06181818       0.00000000       0.00000000      26.91052246
2
Properties=species:S:1:pos:R:3:forces:R:3 energy=-50.88964986883596 pbc="F F F"
Tb       0.00000000       0.00000000       0.00000000       0.00000000       0.00000000     -36.06774139
Tb       0.00000000       0.00000000       1.12060606       0.00000000       0.00000000      36.06774139
2
Properties=species:S:1:pos:R:3:forces:R:3 energy=-53.44460049741609 pbc="F F F"
Tb       0.00000000       0.00000000       0.00000000       0.00000000       0.00000000     -46.22404099
Tb       0.00000000       0.00000000       1.17939394       0.00000000       0.00000000      46.22404099
2
Properties=species:S:1:pos:R:3:forces:R:3 energy=-56.0777371358099 pbc="F F F"
Tb       0.00000000       0.00000000       0.00000000       0.00000000       0.00000000     -42.64810181
Tb       0.00000000       0.00000000       1.23818182       0.00000000       0.00000000      42.64810181
2
Properties=species:S:1:pos:R:3:forces:R:3 energy=-58.38067354721298 pbc="F F F"
Tb       0.00000000       0.00000000       0.00000000       0.00000000       0.00000000     -35.41703796
Tb       0.00000000       0.00000000       1.29696970       0.00000000       0.00000000      35.41703796
2
Properties=species:S:1:pos:R:3:forces:R:3 energy=-60.27250762568032 pbc="F F F"
Tb       0.00000000       0.00000000       0.00000000       0.00000000       0.00000000     -29.36861420
Tb       0.00000000       0.00000000       1.35575758       0.00000000       0.00000000      29.36861420
2
Properties=species:S:1:pos:R:3:forces:R:3 energy=-61.866131518923 pbc="F F F"
Tb       0.00000000       0.00000000       0.00000000       0.00000000       0.00000000     -25.03084373
Tb       0.00000000       0.00000000       1.41454545       0.00000000       0.00000000      25.03084373
2
Properties=species:S:1:pos:R:3:forces:R:3 energy=-63.23806041202364 pbc="F F F"
Tb       0.00000000       0.00000000       0.00000000       0.00000000       0.00000000     -21.82769394
Tb       0.00000000       0.00000000       1.47333333       0.00000000       0.00000000      21.82769394
2
Properties=species:S:1:pos:R:3:forces:R:3 energy=-64.44577415387722 pbc="F F F"
Tb       0.00000000       0.00000000       0.00000000       0.00000000       0.00000000     -19.28555489
Tb       0.00000000       0.00000000       1.53212121       0.00000000       0.00000000      19.28555489
2
Properties=species:S:1:pos:R:3:forces:R:3 energy=-65.50162091002909 pbc="F F F"
Tb       0.00000000       0.00000000       0.00000000       0.00000000       0.00000000     -16.56506157
Tb       0.00000000       0.00000000       1.59090909       0.00000000       0.00000000      16.56506157
2
Properties=species:S:1:pos:R:3:forces:R:3 energy=-66.38379204037257 pbc="F F F"
Tb       0.00000000       0.00000000       0.00000000       0.00000000       0.00000000     -13.37389946
Tb       0.00000000       0.00000000       1.64969697       0.00000000       0.00000000      13.37389946
2
Properties=species:S:1:pos:R:3:forces:R:3 energy=-67.07239770386121 pbc="F F F"
Tb       0.00000000       0.00000000       0.00000000       0.00000000       0.00000000     -10.12841797
Tb       0.00000000       0.00000000       1.70848485       0.00000000       0.00000000      10.12841797
2
Properties=species:S:1:pos:R:3:forces:R:3 energy=-67.59501051649185 pbc="F F F"
Tb       0.00000000       0.00000000       0.00000000       0.00000000       0.00000000      -7.89973259
Tb       0.00000000       0.00000000       1.76727273       0.00000000       0.00000000       7.89973259
2
Properties=species:S:1:pos:R:3:forces:R:3 energy=-68.03295217239834 pbc="F F F"
Tb       0.00000000       0.00000000       0.00000000       0.00000000       0.00000000      -7.25275707
Tb       0.00000000       0.00000000       1.82606061       0.00000000       0.00000000       7.25275707
2
Properties=species:S:1:pos:R:3:forces:R:3 energy=-68.47006970163997 pbc="F F F"
Tb       0.00000000       0.00000000       0.00000000       0.00000000       0.00000000      -7.72492886
Tb       0.00000000       0.00000000       1.88484848       0.00000000       0.00000000       7.72492886
2
Properties=species:S:1:pos:R:3:forces:R:3 energy=-68.94339615992888 pbc="F F F"
Tb       0.00000000       0.00000000       0.00000000       0.00000000       0.00000000      -8.32117367
Tb       0.00000000       0.00000000       1.94363636       0.00000000       0.00000000       8.32117367
2
Properties=species:S:1:pos:R:3:forces:R:3 energy=-69.43702423432484 pbc="F F F"
Tb       0.00000000       0.00000000       0.00000000       0.00000000       0.00000000      -8.35989094
Tb       0.00000000       0.00000000       2.00242424       0.00000000       0.00000000       8.35989094
2
Properties=species:S:1:pos:R:3:forces:R:3 energy=-69.91459221148494 pbc="F F F"
Tb       0.00000000       0.00000000       0.00000000       0.00000000       0.00000000      -7.81070709
Tb       0.00000000       0.00000000       2.06121212       0.00000000       0.00000000       7.81070709
2
Properties=species:S:1:pos:R:3:forces:R:3 energy=-70.34958028434039 pbc="F F F"
Tb       0.00000000       0.00000000       0.00000000       0.00000000       0.00000000      -6.96337748
Tb       0.00000000       0.00000000       2.12000000       0.00000000       0.00000000       6.96337748
2
Properties=species:S:1:pos:R:3:forces:R:3 energy=-70.73271106795947 pbc="F F F"
Tb       0.00000000       0.00000000       0.00000000       0.00000000       0.00000000      -6.08150482
Tb       0.00000000       0.00000000       2.17878788       0.00000000       0.00000000       6.08150482
2
Properties=species:S:1:pos:R:3:forces:R:3 energy=-71.0672193939452 pbc="F F F"
Tb       0.00000000       0.00000000       0.00000000       0.00000000       0.00000000      -5.32999086
Tb       0.00000000       0.00000000       2.23757576       0.00000000       0.00000000       5.32999086
2
Properties=species:S:1:pos:R:3:forces:R:3 energy=-71.36354223600249 pbc="F F F"
Tb       0.00000000       0.00000000       0.00000000       0.00000000       0.00000000      -4.78621626
Tb       0.00000000       0.00000000       2.29636364       0.00000000       0.00000000       4.78621626
2
Properties=species:S:1:pos:R:3:forces:R:3 energy=-71.63322282370758 pbc="F F F"
Tb       0.00000000       0.00000000       0.00000000       0.00000000       0.00000000      -4.40493727
Tb       0.00000000       0.00000000       2.35515152       0.00000000       0.00000000       4.40493727
2
Properties=species:S:1:pos:R:3:forces:R:3 energy=-71.88175427360568 pbc="F F F"
Tb       0.00000000       0.00000000       0.00000000       0.00000000       0.00000000      -4.03964043
Tb       0.00000000       0.00000000       2.41393939       0.00000000       0.00000000       4.03964043
2
Properties=species:S:1:pos:R:3:forces:R:3 energy=-72.10594744809752 pbc="F F F"
Tb       0.00000000       0.00000000       0.00000000       0.00000000       0.00000000      -3.56419873
Tb       0.00000000       0.00000000       2.47272727       0.00000000       0.00000000       3.56419873
2
Properties=species:S:1:pos:R:3:forces:R:3 energy=-72.29820341320922 pbc="F F F"
Tb       0.00000000       0.00000000       0.00000000       0.00000000       0.00000000      -2.95782590
Tb       0.00000000       0.00000000       2.53151515       0.00000000       0.00000000       2.95782590
2
Properties=species:S:1:pos:R:3:forces:R:3 energy=-72.45221260897827 pbc="F F F"
Tb       0.00000000       0.00000000       0.00000000       0.00000000       0.00000000      -2.27467847
Tb       0.00000000       0.00000000       2.59030303       0.00000000       0.00000000       2.27467847
2
Properties=species:S:1:pos:R:3:forces:R:3 energy=-72.56537331683485 pbc="F F F"
Tb       0.00000000       0.00000000       0.00000000       0.00000000       0.00000000      -1.57682908
Tb       0.00000000       0.00000000       2.64909091       0.00000000       0.00000000       1.57682908
2
Properties=species:S:1:pos:R:3:forces:R:3 energy=-72.63818141257744 pbc="F F F"
Tb       0.00000000       0.00000000       0.00000000       0.00000000       0.00000000      -0.90790367
Tb       0.00000000       0.00000000       2.70787879       0.00000000       0.00000000       0.90790367
2
Properties=species:S:1:pos:R:3:forces:R:3 energy=-72.6733299901122 pbc="F F F"
Tb       0.00000000       0.00000000       0.00000000       0.00000000       0.00000000      -0.30064574
Tb       0.00000000       0.00000000       2.76666667       0.00000000       0.00000000       0.30064574
2
Properties=species:S:1:pos:R:3:forces:R:3 energy=-72.67532792974025 pbc="F F F"
Tb       0.00000000       0.00000000       0.00000000       0.00000000       0.00000000       0.21534212
Tb       0.00000000       0.00000000       2.82545455       0.00000000       0.00000000      -0.21534212
2
Properties=species:S:1:pos:R:3:forces:R:3 energy=-72.65024814397728 pbc="F F F"
Tb       0.00000000       0.00000000       0.00000000       0.00000000       0.00000000       0.61764067
Tb       0.00000000       0.00000000       2.88424242       0.00000000       0.00000000      -0.61764067
2
Properties=species:S:1:pos:R:3:forces:R:3 energy=-72.60507143061689 pbc="F F F"
Tb       0.00000000       0.00000000       0.00000000       0.00000000       0.00000000       0.89988410
Tb       0.00000000       0.00000000       2.94303030       0.00000000       0.00000000      -0.89988410
2
Properties=species:S:1:pos:R:3:forces:R:3 energy=-72.54654971512021 pbc="F F F"
Tb       0.00000000       0.00000000       0.00000000       0.00000000       0.00000000       1.07539690
Tb       0.00000000       0.00000000       3.00181818       0.00000000       0.00000000      -1.07539690
2
Properties=species:S:1:pos:R:3:forces:R:3 energy=-72.48021420398427 pbc="F F F"
Tb       0.00000000       0.00000000       0.00000000       0.00000000       0.00000000       1.17014897
Tb       0.00000000       0.00000000       3.06060606       0.00000000       0.00000000      -1.17014897
2
Properties=species:S:1:pos:R:3:forces:R:3 energy=-72.4100625637271 pbc="F F F"
Tb       0.00000000       0.00000000       0.00000000       0.00000000       0.00000000       1.20841289
Tb       0.00000000       0.00000000       3.11939394       0.00000000       0.00000000      -1.20841289
2
Properties=species:S:1:pos:R:3:forces:R:3 energy=-72.33899385656461 pbc="F F F"
Tb       0.00000000       0.00000000       0.00000000       0.00000000       0.00000000       1.20209372
Tb       0.00000000       0.00000000       3.17818182       0.00000000       0.00000000      -1.20209372
2
Properties=species:S:1:pos:R:3:forces:R:3 energy=-72.26957904906966 pbc="F F F"
Tb       0.00000000       0.00000000       0.00000000       0.00000000       0.00000000       1.15208602
Tb       0.00000000       0.00000000       3.23696970       0.00000000       0.00000000      -1.15208602
2
Properties=species:S:1:pos:R:3:forces:R:3 energy=-72.20438912682206 pbc="F F F"
Tb       0.00000000       0.00000000       0.00000000       0.00000000       0.00000000       1.05901229
Tb       0.00000000       0.00000000       3.29575758       0.00000000       0.00000000      -1.05901229
2
Properties=species:S:1:pos:R:3:forces:R:3 energy=-72.14572034433854 pbc="F F F"
Tb       0.00000000       0.00000000       0.00000000       0.00000000       0.00000000       0.93321264
Tb       0.00000000       0.00000000       3.35454545       0.00000000       0.00000000      -0.93321264
2
Properties=species:S:1:pos:R:3:forces:R:3 energy=-72.0948771506859 pbc="F F F"
Tb       0.00000000       0.00000000       0.00000000       0.00000000       0.00000000       0.79674673
Tb       0.00000000       0.00000000       3.41333333       0.00000000       0.00000000      -0.79674673
2
Properties=species:S:1:pos:R:3:forces:R:3 energy=-72.0516915724716 pbc="F F F"
Tb       0.00000000       0.00000000       0.00000000       0.00000000       0.00000000       0.67783636
Tb       0.00000000       0.00000000       3.47212121       0.00000000       0.00000000      -0.67783636
2
Properties=species:S:1:pos:R:3:forces:R:3 energy=-72.01432471020166 pbc="F F F"
Tb       0.00000000       0.00000000       0.00000000       0.00000000       0.00000000       0.60257560
Tb       0.00000000       0.00000000       3.53090909       0.00000000       0.00000000      -0.60257560
2
Properties=species:S:1:pos:R:3:forces:R:3 energy=-71.97964828720292 pbc="F F F"
Tb       0.00000000       0.00000000       0.00000000       0.00000000       0.00000000       0.58792597
Tb       0.00000000       0.00000000       3.58969697       0.00000000       0.00000000      -0.58792597
2
Properties=species:S:1:pos:R:3:forces:R:3 energy=-71.94393139650107 pbc="F F F"
Tb       0.00000000       0.00000000       0.00000000       0.00000000       0.00000000       0.63733023
Tb       0.00000000       0.00000000       3.64848485       0.00000000       0.00000000      -0.63733023
2
Properties=species:S:1:pos:R:3:forces:R:3 energy=-71.90367949663244 pbc="F F F"
Tb       0.00000000       0.00000000       0.00000000       0.00000000       0.00000000       0.73891640
Tb       0.00000000       0.00000000       3.70727273       0.00000000       0.00000000      -0.73891640
2
Properties=species:S:1:pos:R:3:forces:R:3 energy=-71.85652732640469 pbc="F F F"
Tb       0.00000000       0.00000000       0.00000000       0.00000000       0.00000000       0.86709094
Tb       0.00000000       0.00000000       3.76606061       0.00000000       0.00000000      -0.86709094
2
Properties=species:S:1:pos:R:3:forces:R:3 energy=-71.80185664826723 pbc="F F F"
Tb       0.00000000       0.00000000       0.00000000       0.00000000       0.00000000       0.98891753
Tb       0.00000000       0.00000000       3.82484848       0.00000000       0.00000000      -0.98891753
2
Properties=species:S:1:pos:R:3:forces:R:3 energy=-71.74097185743385 pbc="F F F"
Tb       0.00000000       0.00000000       0.00000000       0.00000000       0.00000000       1.07438183
Tb       0.00000000       0.00000000       3.88363636       0.00000000       0.00000000      -1.07438183
2
Properties=species:S:1:pos:R:3:forces:R:3 energy=-71.67660401421753 pbc="F F F"
Tb       0.00000000       0.00000000       0.00000000       0.00000000       0.00000000       1.10604227
Tb       0.00000000       0.00000000       3.94242424       0.00000000       0.00000000      -1.10604227
2
Properties=species:S:1:pos:R:3:forces:R:3 energy=-71.61201062299295 pbc="F F F"
Tb       0.00000000       0.00000000       0.00000000       0.00000000       0.00000000       1.08295918
Tb       0.00000000       0.00000000       4.00121212       0.00000000       0.00000000      -1.08295918
2
Properties=species:S:1:pos:R:3:forces:R:3 energy=-71.55011345676162 pbc="F F F"
Tb       0.00000000       0.00000000       0.00000000       0.00000000       0.00000000       1.01731169
Tb       0.00000000       0.00000000       4.06000000       0.00000000       0.00000000      -1.01731169
2
Properties=species:S:1:pos:R:3:forces:R:3 energy=-71.49288824993877 pbc="F F F"
Tb       0.00000000       0.00000000       0.00000000       0.00000000       0.00000000       0.92694271
Tb       0.00000000       0.00000000       4.11878788       0.00000000       0.00000000      -0.92694271
2
Properties=species:S:1:pos:R:3:forces:R:3 energy=-71.44128075600665 pbc="F F F"
Tb       0.00000000       0.00000000       0.00000000       0.00000000       0.00000000       0.82844019
Tb       0.00000000       0.00000000       4.17757576       0.00000000       0.00000000      -0.82844019
2
Properties=species:S:1:pos:R:3:forces:R:3 energy=-71.39540511177228 pbc="F F F"
Tb       0.00000000       0.00000000       0.00000000       0.00000000       0.00000000       0.73366022
Tb       0.00000000       0.00000000       4.23636364       0.00000000       0.00000000      -0.73366022
2
Properties=species:S:1:pos:R:3:forces:R:3 energy=-71.35481086934394 pbc="F F F"
Tb       0.00000000       0.00000000       0.00000000       0.00000000       0.00000000       0.64953917
Tb       0.00000000       0.00000000       4.29515152       0.00000000       0.00000000      -0.64953917
2
Properties=species:S:1:pos:R:3:forces:R:3 energy=-71.31875766383769 pbc="F F F"
Tb       0.00000000       0.00000000       0.00000000       0.00000000       0.00000000       0.57963473
Tb       0.00000000       0.00000000       4.35393939       0.00000000       0.00000000      -0.57963473
2
Properties=species:S:1:pos:R:3:forces:R:3 energy=-71.28634490041318 pbc="F F F"
Tb       0.00000000       0.00000000       0.00000000       0.00000000       0.00000000       0.52561313
Tb       0.00000000       0.00000000       4.41272727       0.00000000       0.00000000      -0.52561313
2
Properties=species:S:1:pos:R:3:forces:R:3 energy=-71.25663383092173 pbc="F F F"
Tb       0.00000000       0.00000000       0.00000000       0.00000000       0.00000000       0.48801044
Tb       0.00000000       0.00000000       4.47151515       0.00000000       0.00000000      -0.48801044
2
Properties=species:S:1:pos:R:3:forces:R:3 energy=-71.22865518963656 pbc="F F F"
Tb       0.00000000       0.00000000       0.00000000       0.00000000       0.00000000       0.46616626
Tb       0.00000000       0.00000000       4.53030303       0.00000000       0.00000000      -0.46616626
2
Properties=species:S:1:pos:R:3:forces:R:3 energy=-71.20155414224534 pbc="F F F"
Tb       0.00000000       0.00000000       0.00000000       0.00000000       0.00000000       0.45784667
Tb       0.00000000       0.00000000       4.58909091       0.00000000       0.00000000      -0.45784667
2
Properties=species:S:1:pos:R:3:forces:R:3 energy=-71.17463607488881 pbc="F F F"
Tb       0.00000000       0.00000000       0.00000000       0.00000000       0.00000000       0.45909587
Tb       0.00000000       0.00000000       4.64787879       0.00000000       0.00000000      -0.45909587
2
Properties=species:S:1:pos:R:3:forces:R:3 energy=-71.1474962906998 pbc="F F F"
Tb       0.00000000       0.00000000       0.00000000       0.00000000       0.00000000       0.46464524
Tb       0.00000000       0.00000000       4.70666667       0.00000000       0.00000000      -0.46464524
2
Properties=species:S:1:pos:R:3:forces:R:3 energy=-71.12003526542463 pbc="F F F"
Tb       0.00000000       0.00000000       0.00000000       0.00000000       0.00000000       0.46899343
Tb       0.00000000       0.00000000       4.76545455       0.00000000       0.00000000      -0.46899343
2
Properties=species:S:1:pos:R:3:forces:R:3 energy=-71.09245865692651 pbc="F F F"
Tb       0.00000000       0.00000000       0.00000000       0.00000000       0.00000000       0.46773586
Tb       0.00000000       0.00000000       4.82424242       0.00000000       0.00000000      -0.46773586
2
Properties=species:S:1:pos:R:3:forces:R:3 energy=-71.06519339134913 pbc="F F F"
Tb       0.00000000       0.00000000       0.00000000       0.00000000       0.00000000       0.45878285
Tb       0.00000000       0.00000000       4.88303030       0.00000000       0.00000000      -0.45878285
2
Properties=species:S:1:pos:R:3:forces:R:3 energy=-71.03865876544167 pbc="F F F"
Tb       0.00000000       0.00000000       0.00000000       0.00000000       0.00000000       0.44291151
Tb       0.00000000       0.00000000       4.94181818       0.00000000       0.00000000      -0.44291151
2
Properties=species:S:1:pos:R:3:forces:R:3 energy=-71.01318253113851 pbc="F F F"
Tb       0.00000000       0.00000000       0.00000000       0.00000000       0.00000000       0.42340028
Tb       0.00000000       0.00000000       5.00060606       0.00000000       0.00000000      -0.42340028
2
Properties=species:S:1:pos:R:3:forces:R:3 energy=-70.98885595607003 pbc="F F F"
Tb       0.00000000       0.00000000       0.00000000       0.00000000       0.00000000       0.40477791
Tb       0.00000000       0.00000000       5.05939394       0.00000000       0.00000000      -0.40477791
2
Properties=species:S:1:pos:R:3:forces:R:3 energy=-70.96549566233476 pbc="F F F"
Tb       0.00000000       0.00000000       0.00000000       0.00000000       0.00000000       0.39093700
Tb       0.00000000       0.00000000       5.11818182       0.00000000       0.00000000      -0.39093700
2
Properties=species:S:1:pos:R:3:forces:R:3 energy=-70.94277332937428 pbc="F F F"
Tb       0.00000000       0.00000000       0.00000000       0.00000000       0.00000000       0.38312259
Tb       0.00000000       0.00000000       5.17696970       0.00000000       0.00000000      -0.38312259
2
Properties=species:S:1:pos:R:3:forces:R:3 energy=-70.92039118747039 pbc="F F F"
Tb       0.00000000       0.00000000       0.00000000       0.00000000       0.00000000       0.37851235
Tb       0.00000000       0.00000000       5.23575758       0.00000000       0.00000000      -0.37851235
2
Properties=species:S:1:pos:R:3:forces:R:3 energy=-70.89833377826125 pbc="F F F"
Tb       0.00000000       0.00000000       0.00000000       0.00000000       0.00000000       0.37049296
Tb       0.00000000       0.00000000       5.29454545       0.00000000       0.00000000      -0.37049296
2
Properties=species:S:1:pos:R:3:forces:R:3 energy=-70.87702818786558 pbc="F F F"
Tb       0.00000000       0.00000000       0.00000000       0.00000000       0.00000000       0.35260174
Tb       0.00000000       0.00000000       5.35333333       0.00000000       0.00000000      -0.35260174
2
Properties=species:S:1:pos:R:3:forces:R:3 energy=-70.85703122269999 pbc="F F F"
Tb       0.00000000       0.00000000       0.00000000       0.00000000       0.00000000       0.32737866
Tb       0.00000000       0.00000000       5.41212121       0.00000000       0.00000000      -0.32737866
2
Properties=species:S:1:pos:R:3:forces:R:3 energy=-70.8384190911786 pbc="F F F"
Tb       0.00000000       0.00000000       0.00000000       0.00000000       0.00000000       0.30725896
Tb       0.00000000       0.00000000       5.47090909       0.00000000       0.00000000      -0.30725896
2
Properties=species:S:1:pos:R:3:forces:R:3 energy=-70.82084079521954 pbc="F F F"
Tb       0.00000000       0.00000000       0.00000000       0.00000000       0.00000000       0.28959632
Tb       0.00000000       0.00000000       5.52969697       0.00000000       0.00000000      -0.28959632
2
Properties=species:S:1:pos:R:3:forces:R:3 energy=-70.80473883020217 pbc="F F F"
Tb       0.00000000       0.00000000       0.00000000       0.00000000       0.00000000       0.25453833
Tb       0.00000000       0.00000000       5.58848485       0.00000000       0.00000000      -0.25453833
2
Properties=species:S:1:pos:R:3:forces:R:3 energy=-70.79117373740321 pbc="F F F"
Tb       0.00000000       0.00000000       0.00000000       0.00000000       0.00000000       0.20712326
Tb       0.00000000       0.00000000       5.64727273       0.00000000       0.00000000      -0.20712326
2
Properties=species:S:1:pos:R:3:forces:R:3 energy=-70.78003880191781 pbc="F F F"
Tb       0.00000000       0.00000000       0.00000000       0.00000000       0.00000000       0.17698665
Tb       0.00000000       0.00000000       5.70606061       0.00000000       0.00000000      -0.17698665
2
Properties=species:S:1:pos:R:3:forces:R:3 energy=-70.76980828739171 pbc="F F F"
Tb       0.00000000       0.00000000       0.00000000       0.00000000       0.00000000       0.17217654
Tb       0.00000000       0.00000000       5.76484848       0.00000000       0.00000000      -0.17217654
2
Properties=species:S:1:pos:R:3:forces:R:3 energy=-70.76010857999215 pbc="F F F"
Tb       0.00000000       0.00000000       0.00000000       0.00000000       0.00000000       0.15163818
Tb       0.00000000       0.00000000       5.82363636       0.00000000       0.00000000      -0.15163818
2
Properties=species:S:1:pos:R:3:forces:R:3 energy=-70.75280914114073 pbc="F F F"
Tb       0.00000000       0.00000000       0.00000000       0.00000000       0.00000000       0.09287152
Tb       0.00000000       0.00000000       5.88242424       0.00000000       0.00000000      -0.09287152
2
Properties=species:S:1:pos:R:3:forces:R:3 energy=-70.74924543799825 pbc="F F F"
Tb       0.00000000       0.00000000       0.00000000       0.00000000       0.00000000       0.03112334
Tb       0.00000000       0.00000000       5.94121212       0.00000000       0.00000000      -0.03112334
2
Properties=species:S:1:pos:R:3:forces:R:3 energy=-70.74839552450749 pbc="F F F"
Tb       0.00000000       0.00000000       0.00000000       0.00000000       0.00000000       0.00623335
Tb       0.00000000       0.00000000       6.00000000       0.00000000       0.00000000      -0.00623335
