2
Properties=species:S:1:pos:R:3:forces:R:3 energy=1419929.9806777658 pbc="F F F"
Tc       0.00000000       0.00000000       0.00000000       0.00000000       0.00000000 -479795.03125000
Tc       0.00000000       0.00000000       0.18000000       0.00000000       0.00000000  479795.03125000
2
Properties=species:S:1:pos:R:3:forces:R:3 energy=1378345.6056777658 pbc="F F F"
Tc       0.00000000       0.00000000       0.00000000       0.00000000       0.00000000 -1017675.68750000
Tc       0.00000000       0.00000000       0.23878788       0.00000000       0.00000000 1017675.68750000
2
Properties=species:S:1:pos:R:3:forces:R:3 energy=1290834.3556777658 pbc="F F F"
Tc       0.00000000       0.00000000       0.00000000       0.00000000       0.00000000 -2036006.25000000
Tc       0.00000000       0.00000000       0.29757576       0.00000000       0.00000000 2036006.25000000
2
Properties=species:S:1:pos:R:3:forces:R:3 energy=1131908.2306777658 pbc="F F F"
Tc       0.00000000       0.00000000       0.00000000       0.00000000       0.00000000 -3403393.00000000
Tc       0.00000000       0.00000000       0.35636364       0.00000000       0.00000000 3403393.00000000
2
Properties=species:S:1:pos:R:3:forces:R:3 energy=892304.2931777674 pbc="F F F"
Tc       0.00000000       0.00000000       0.00000000       0.00000000       0.00000000 -4675835.50000000
Tc       0.00000000       0.00000000       0.41515152       0.00000000       0.00000000 4675835.50000000
2
Properties=species:S:1:pos:R:3:forces:R:3 energy=598510.355677769 pbc="F F F"
Tc       0.00000000       0.00000000       0.00000000       0.00000000       0.00000000 -5118251.00000000
Tc       0.00000000       0.00000000       0.47393939       0.00000000       0.00000000 5118251.00000000
2
Properties=species:S:1:pos:R:3:forces:R:3 energy=317258.6056777722 pbc="F F F"
Tc       0.00000000       0.00000000       0.00000000       0.00000000       0.00000000 -4220996.50000000
Tc       0.00000000       0.00000000       0.53272727       0.00000000       0.00000000 4220996.50000000
2
Properties=species:S:1:pos:R:3:forces:R:3 energy=121735.33224027853 pbc="F F F"
Tc       0.00000000       0.00000000       0.00000000       0.00000000       0.00000000 -2372078.75000000
Tc       0.00000000       0.00000000       0.59151515       0.00000000       0.00000000 2372078.75000000
2
Properties=species:S:1:pos:R:3:forces:R:3 energy=32217.521693414612 pbc="F F F"
Tc       0.00000000       0.00000000       0.00000000       0.00000000       0.00000000 -819393.12500000
Tc       0.00000000       0.00000000       0.65030303       0.00000000       0.00000000  819393.12500000
2
Properties=species:S:1:pos:R:3:forces:R:3 energy=6273.571986399202 pbc="F F F"
Tc       0.00000000       0.00000000       0.00000000       0.00000000       0.00000000 -192327.84375000
Tc       0.00000000       0.00000000       0.70909091       0.00000000       0.00000000  192327.84375000
2
Properties=species:S:1:pos:R:3:forces:R:3 energy=391.7025101046014 pbc="F F F"
Tc       0.00000000       0.00000000       0.00000000       0.00000000       0.00000000  -33838.86718750
Tc       0.00000000       0.00000000       0.76787879       0.00000000       0.00000000   33838.86718750
2
Properties=species:S:1:pos:R:3:forces:R:3 energy=175.8202469574376 pbc="F F F"
Tc       0.00000000       0.00000000       0.00000000       0.00000000       0.00000000   -1797.46899414
Tc       0.00000000       0.00000000       0.82666667       0.00000000       0.00000000    1797.46899414
2
Properties=species:S:1:pos:R:3:forces:R:3 energy=75.66042645148215 pbc="F F F"
Tc       0.00000000       0.00000000       0.00000000       0.00000000       0.00000000   -1299.66833496
Tc       0.00000000       0.00000000       0.88545455       0.00000000       0.00000000    1299.66833496
2
Properties=species:S:1:pos:R:3:forces:R:3 energy=42.67467441546135 pbc="F F F"
Tc       0.00000000       0.00000000       0.00000000       0.00000000       0.00000000    -487.96633911
Tc       0.00000000       0.00000000       0.94424242       0.00000000       0.00000000     487.96633911
2
Properties=species:S:1:pos:R:3:forces:R:3 energy=19.76195478710133 pbc="F F F"
Tc       0.00000000       0.00000000       0.00000000       0.00000000       0.00000000    -293.35095215
Tc       0.00000000       0.00000000       1.00303030       0.00000000       0.00000000     293.35095215
2
Properties=species:S:1:pos:R:3:forces:R:3 energy=6.196109429063996 pbc="F F F"
Tc       0.00000000       0.00000000       0.00000000       0.00000000       0.00000000    -189.38258362
Tc       0.00000000       0.00000000       1.06181818       0.00000000       0.00000000     189.38258362
2
Properties=species:S:1:pos:R:3:forces:R:3 energy=-3.594703844334619 pbc="F F F"
Tc       0.00000000       0.00000000       0.00000000       0.00000000       0.00000000    -144.38015747
Tc       0.00000000       0.00000000       1.12060606       0.00000000       0.00000000     144.38015747
2
Properties=species:S:1:pos:R:3:forces:R:3 energy=-10.800910891642049 pbc="F F F"
Tc       0.00000000       0.00000000       0.00000000       0.00000000       0.00000000    -104.23675537
Tc       0.00000000       0.00000000       1.17939394       0.00000000       0.00000000     104.23675537
2
Properties=species:S:1:pos:R:3:forces:R:3 energy=-16.67979586936745 pbc="F F F"
Tc       0.00000000       0.00000000       0.00000000       0.00000000       0.00000000    -101.07123566
Tc       0.00000000       0.00000000       1.23818182       0.00000000       0.00000000     101.07123566
2
Properties=species:S:1:pos:R:3:forces:R:3 energy=-22.65370487678402 pbc="F F F"
Tc       0.00000000       0.00000000       0.00000000       0.00000000       0.00000000     -99.71781921
Tc       0.00000000       0.00000000       1.29696970       0.00000000       0.00000000      99.71781921
2
Properties=species:S:1:pos:R:3:forces:R:3 energy=-28.182862046496144 pbc="F F F"
Tc       0.00000000       0.00000000       0.00000000       0.00000000       0.00000000     -86.47593689
Tc       0.00000000       0.00000000       1.35575758       0.00000000       0.00000000      86.47593689
2
Properties=species:S:1:pos:R:3:forces:R:3 energy=-32.60375417907097 pbc="F F F"
Tc       0.00000000       0.00000000       0.00000000       0.00000000       0.00000000     -62.96698761
Tc       0.00000000       0.00000000       1.41454545       0.00000000       0.00000000      62.96698761
2
Properties=species:S:1:pos:R:3:forces:R:3 energy=-35.62803782276831 pbc="F F F"
Tc       0.00000000       0.00000000       0.00000000       0.00000000       0.00000000     -41.27782440
Tc       0.00000000       0.00000000       1.47333333       0.00000000       0.00000000      41.27782440
2
Properties=species:S:1:pos:R:3:forces:R:3 energy=-37.65988202855155 pbc="F F F"
Tc       0.00000000       0.00000000       0.00000000       0.00000000       0.00000000     -29.56057739
Tc       0.00000000       0.00000000       1.53212121       0.00000000       0.00000000      29.56057739
2
Properties=species:S:1:pos:R:3:forces:R:3 energy=-39.24100812140789 pbc="F F F"
Tc       0.00000000       0.00000000       0.00000000       0.00000000       0.00000000     -24.57543373
Tc       0.00000000       0.00000000       1.59090909       0.00000000       0.00000000      24.57543373
2
Properties=species:S:1:pos:R:3:forces:R:3 energy=-40.50438115754973 pbc="F F F"
Tc       0.00000000       0.00000000       0.00000000       0.00000000       0.00000000     -17.76861954
Tc       0.00000000       0.00000000       1.64969697       0.00000000       0.00000000      17.76861954
2
Properties=species:S:1:pos:R:3:forces:R:3 energy=-41.313499797794734 pbc="F F F"
Tc       0.00000000       0.00000000       0.00000000       0.00000000       0.00000000     -10.24774933
Tc       0.00000000       0.00000000       1.70848485       0.00000000       0.00000000      10.24774933
2
Properties=species:S:1:pos:R:3:forces:R:3 energy=-41.793322055130396 pbc="F F F"
Tc       0.00000000       0.00000000       0.00000000       0.00000000       0.00000000      -6.64012575
Tc       0.00000000       0.00000000       1.76727273       0.00000000       0.00000000       6.64012575
2
Properties=species:S:1:pos:R:3:forces:R:3 energy=-42.11571149180057 pbc="F F F"
Tc       0.00000000       0.00000000       0.00000000       0.00000000       0.00000000      -4.21635532
Tc       0.00000000       0.00000000       1.82606061       0.00000000       0.00000000       4.21635532
2
Properties=species:S:1:pos:R:3:forces:R:3 energy=-42.27219951155378 pbc="F F F"
Tc       0.00000000       0.00000000       0.00000000       0.00000000       0.00000000      -1.07495904
Tc       0.00000000       0.00000000       1.88484848       0.00000000       0.00000000       1.07495904
2
Properties=species:S:1:pos:R:3:forces:R:3 energy=-42.25858243362882 pbc="F F F"
Tc       0.00000000       0.00000000       0.00000000       0.00000000       0.00000000       1.27227736
Tc       0.00000000       0.00000000       1.94363636       0.00000000       0.00000000      -1.27227736
2
Properties=species:S:1:pos:R:3:forces:R:3 energy=-42.15532011568149 pbc="F F F"
Tc       0.00000000       0.00000000       0.00000000       0.00000000       0.00000000       2.01020789
Tc       0.00000000       0.00000000       2.00242424       0.00000000       0.00000000      -2.01020789
2
Properties=species:S:1:pos:R:3:forces:R:3 energy=-42.04039308389249 pbc="F F F"
Tc       0.00000000       0.00000000       0.00000000       0.00000000       0.00000000       1.80823267
Tc       0.00000000       0.00000000       2.06121212       0.00000000       0.00000000      -1.80823267
2
Properties=species:S:1:pos:R:3:forces:R:3 energy=-41.949473468886346 pbc="F F F"
Tc       0.00000000       0.00000000       0.00000000       0.00000000       0.00000000       1.24926972
Tc       0.00000000       0.00000000       2.12000000       0.00000000       0.00000000      -1.24926972
2
Properties=species:S:1:pos:R:3:forces:R:3 energy=-41.895506062207765 pbc="F F F"
Tc       0.00000000       0.00000000       0.00000000       0.00000000       0.00000000       0.59091997
Tc       0.00000000       0.00000000       2.17878788       0.00000000       0.00000000      -0.59091997
2
Properties=species:S:1:pos:R:3:forces:R:3 energy=-41.876948429882795 pbc="F F F"
Tc       0.00000000       0.00000000       0.00000000       0.00000000       0.00000000       0.08453938
Tc       0.00000000       0.00000000       2.23757576       0.00000000       0.00000000      -0.08453938
2
Properties=species:S:1:pos:R:3:forces:R:3 energy=-41.87949191742919 pbc="F F F"
Tc       0.00000000       0.00000000       0.00000000       0.00000000       0.00000000      -0.11950305
Tc       0.00000000       0.00000000       2.29636364       0.00000000       0.00000000       0.11950305
2
Properties=species:S:1:pos:R:3:forces:R:3 energy=-41.885778649977766 pbc="F F F"
Tc       0.00000000       0.00000000       0.00000000       0.00000000       0.00000000      -0.05775185
Tc       0.00000000       0.00000000       2.35515152       0.00000000       0.00000000       0.05775185
2
Properties=species:S:1:pos:R:3:forces:R:3 energy=-41.882544259559 pbc="F F F"
Tc       0.00000000       0.00000000       0.00000000       0.00000000       0.00000000       0.19705725
Tc       0.00000000       0.00000000       2.41393939       0.00000000       0.00000000      -0.19705725
2
Properties=species:S:1:pos:R:3:forces:R:3 energy=-41.859499397296666 pbc="F F F"
Tc       0.00000000       0.00000000       0.00000000       0.00000000       0.00000000       0.60629809
Tc       0.00000000       0.00000000       2.47272727       0.00000000       0.00000000      -0.60629809
2
Properties=species:S:1:pos:R:3:forces:R:3 energy=-41.810949055598876 pbc="F F F"
Tc       0.00000000       0.00000000       0.00000000       0.00000000       0.00000000       1.02640021
Tc       0.00000000       0.00000000       2.53151515       0.00000000       0.00000000      -1.02640021
2
Properties=species:S:1:pos:R:3:forces:R:3 energy=-41.743360120988044 pbc="F F F"
Tc       0.00000000       0.00000000       0.00000000       0.00000000       0.00000000       1.22233045
Tc       0.00000000       0.00000000       2.59030303       0.00000000       0.00000000      -1.22233045
2
Properties=species:S:1:pos:R:3:forces:R:3 energy=-41.673143858114464 pbc="F F F"
Tc       0.00000000       0.00000000       0.00000000       0.00000000       0.00000000       1.12223768
Tc       0.00000000       0.00000000       2.64909091       0.00000000       0.00000000      -1.12223768
2
Properties=species:S:1:pos:R:3:forces:R:3 energy=-41.61537492490863 pbc="F F F"
Tc       0.00000000       0.00000000       0.00000000       0.00000000       0.00000000       0.82270724
Tc       0.00000000       0.00000000       2.70787879       0.00000000       0.00000000      -0.82270724
2
Properties=species:S:1:pos:R:3:forces:R:3 energy=-41.57641424958824 pbc="F F F"
Tc       0.00000000       0.00000000       0.00000000       0.00000000       0.00000000       0.52756947
Tc       0.00000000       0.00000000       2.76666667       0.00000000       0.00000000      -0.52756947
2
Properties=species:S:1:pos:R:3:forces:R:3 energy=-41.54763678613091 pbc="F F F"
Tc       0.00000000       0.00000000       0.00000000       0.00000000       0.00000000       0.51614165
Tc       0.00000000       0.00000000       2.82545455       0.00000000       0.00000000      -0.51614165
2
Properties=species:S:1:pos:R:3:forces:R:3 energy=-41.50832667103212 pbc="F F F"
Tc       0.00000000       0.00000000       0.00000000       0.00000000       0.00000000       0.87057394
Tc       0.00000000       0.00000000       2.88424242       0.00000000       0.00000000      -0.87057394
2
Properties=species:S:1:pos:R:3:forces:R:3 energy=-41.44226384232879 pbc="F F F"
Tc       0.00000000       0.00000000       0.00000000       0.00000000       0.00000000       1.37836158
Tc       0.00000000       0.00000000       2.94303030       0.00000000       0.00000000      -1.37836158
2
Properties=species:S:1:pos:R:3:forces:R:3 energy=-41.348316858191126 pbc="F F F"
Tc       0.00000000       0.00000000       0.00000000       0.00000000       0.00000000       1.78661025
Tc       0.00000000       0.00000000       3.00181818       0.00000000       0.00000000      -1.78661025
2
Properties=species:S:1:pos:R:3:forces:R:3 energy=-41.23661891753214 pbc="F F F"
Tc       0.00000000       0.00000000       0.00000000       0.00000000       0.00000000       1.97327292
Tc       0.00000000       0.00000000       3.06060606       0.00000000       0.00000000      -1.97327292
2
Properties=species:S:1:pos:R:3:forces:R:3 energy=-41.12079091829103 pbc="F F F"
Tc       0.00000000       0.00000000       0.00000000       0.00000000       0.00000000       1.93403304
Tc       0.00000000       0.00000000       3.11939394       0.00000000       0.00000000      -1.93403304
2
Properties=species:S:1:pos:R:3:forces:R:3 energy=-41.01220919606439 pbc="F F F"
Tc       0.00000000       0.00000000       0.00000000       0.00000000       0.00000000       1.74386799
Tc       0.00000000       0.00000000       3.17818182       0.00000000       0.00000000      -1.74386799
2
Properties=species:S:1:pos:R:3:forces:R:3 energy=-40.91648347124014 pbc="F F F"
Tc       0.00000000       0.00000000       0.00000000       0.00000000       0.00000000       1.51584256
Tc       0.00000000       0.00000000       3.23696970       0.00000000       0.00000000      -1.51584256
2
Properties=species:S:1:pos:R:3:forces:R:3 energy=-40.83269772290449 pbc="F F F"
Tc       0.00000000       0.00000000       0.00000000       0.00000000       0.00000000       1.35209680
Tc       0.00000000       0.00000000       3.29575758       0.00000000       0.00000000      -1.35209680
2
Properties=species:S:1:pos:R:3:forces:R:3 energy=-40.75491718430205 pbc="F F F"
Tc       0.00000000       0.00000000       0.00000000       0.00000000       0.00000000       1.31877959
Tc       0.00000000       0.00000000       3.35454545       0.00000000       0.00000000      -1.31877959
2
Properties=species:S:1:pos:R:3:forces:R:3 energy=-40.67487673377568 pbc="F F F"
Tc       0.00000000       0.00000000       0.00000000       0.00000000       0.00000000       1.42389905
Tc       0.00000000       0.00000000       3.41333333       0.00000000       0.00000000      -1.42389905
2
Properties=species:S:1:pos:R:3:forces:R:3 energy=-40.58606101411552 pbc="F F F"
Tc       0.00000000       0.00000000       0.00000000       0.00000000       0.00000000       1.60082912
Tc       0.00000000       0.00000000       3.47212121       0.00000000       0.00000000      -1.60082912
2
Properties=species:S:1:pos:R:3:forces:R:3 energy=-40.48741308491411 pbc="F F F"
Tc       0.00000000       0.00000000       0.00000000       0.00000000       0.00000000       1.73995757
Tc       0.00000000       0.00000000       3.53090909       0.00000000       0.00000000      -1.73995757
2
Properties=species:S:1:pos:R:3:forces:R:3 energy=-40.38401747829231 pbc="F F F"
Tc       0.00000000       0.00000000       0.00000000       0.00000000       0.00000000       1.75217330
Tc       0.00000000       0.00000000       3.58969697       0.00000000       0.00000000      -1.75217330
2
Properties=species:S:1:pos:R:3:forces:R:3 energy=-40.28443004386191 pbc="F F F"
Tc       0.00000000       0.00000000       0.00000000       0.00000000       0.00000000       1.61203706
Tc       0.00000000       0.00000000       3.64848485       0.00000000       0.00000000      -1.61203706
2
Properties=species:S:1:pos:R:3:forces:R:3 energy=-40.19675644310437 pbc="F F F"
Tc       0.00000000       0.00000000       0.00000000       0.00000000       0.00000000       1.35689032
Tc       0.00000000       0.00000000       3.70727273       0.00000000       0.00000000      -1.35689032
2
Properties=species:S:1:pos:R:3:forces:R:3 energy=-40.1257873592417 pbc="F F F"
Tc       0.00000000       0.00000000       0.00000000       0.00000000       0.00000000       1.05593145
Tc       0.00000000       0.00000000       3.76606061       0.00000000       0.00000000      -1.05593145
2
Properties=species:S:1:pos:R:3:forces:R:3 energy=-40.07217069525848 pbc="F F F"
Tc       0.00000000       0.00000000       0.00000000       0.00000000       0.00000000       0.77610898
Tc       0.00000000       0.00000000       3.82484848       0.00000000       0.00000000      -0.77610898
2
Properties=species:S:1:pos:R:3:forces:R:3 energy=-40.03323938855112 pbc="F F F"
Tc       0.00000000       0.00000000       0.00000000       0.00000000       0.00000000       0.56129843
Tc       0.00000000       0.00000000       3.88363636       0.00000000       0.00000000      -0.56129843
2
Properties=species:S:1:pos:R:3:forces:R:3 energy=-40.00458308837604 pbc="F F F"
Tc       0.00000000       0.00000000       0.00000000       0.00000000       0.00000000       0.42705280
Tc       0.00000000       0.00000000       3.94242424       0.00000000       0.00000000      -0.42705280
2
Properties=species:S:1:pos:R:3:forces:R:3 energy=-39.98159307339619 pbc="F F F"
Tc       0.00000000       0.00000000       0.00000000       0.00000000       0.00000000       0.36571866
Tc       0.00000000       0.00000000       4.00121212       0.00000000       0.00000000      -0.36571866
2
Properties=species:S:1:pos:R:3:forces:R:3 energy=-39.960568542398526 pbc="F F F"
Tc       0.00000000       0.00000000       0.00000000       0.00000000       0.00000000       0.35613862
Tc       0.00000000       0.00000000       4.06000000       0.00000000       0.00000000      -0.35613862
2
Properties=species:S:1:pos:R:3:forces:R:3 energy=-39.939197294659806 pbc="F F F"
Tc       0.00000000       0.00000000       0.00000000       0.00000000       0.00000000       0.37344041
Tc       0.00000000       0.00000000       4.11878788       0.00000000       0.00000000      -0.37344041
2
Properties=species:S:1:pos:R:3:forces:R:3 energy=-39.916551889906806 pbc="F F F"
Tc       0.00000000       0.00000000       0.00000000       0.00000000       0.00000000       0.39640576
Tc       0.00000000       0.00000000       4.17757576       0.00000000       0.00000000      -0.39640576
2
Properties=species:S:1:pos:R:3:forces:R:3 energy=-39.892746354072806 pbc="F F F"
Tc       0.00000000       0.00000000       0.00000000       0.00000000       0.00000000       0.41158623
Tc       0.00000000       0.00000000       4.23636364       0.00000000       0.00000000      -0.41158623
2
Properties=species:S:1:pos:R:3:forces:R:3 energy=-39.8684097368197 pbc="F F F"
Tc       0.00000000       0.00000000       0.00000000       0.00000000       0.00000000       0.41433930
Tc       0.00000000       0.00000000       4.29515152       0.00000000       0.00000000      -0.41433930
2
Properties=species:S:1:pos:R:3:forces:R:3 energy=-39.84422077390851 pbc="F F F"
Tc       0.00000000       0.00000000       0.00000000       0.00000000       0.00000000       0.40753531
Tc       0.00000000       0.00000000       4.35393939       0.00000000       0.00000000      -0.40753531
2
Properties=species:S:1:pos:R:3:forces:R:3 energy=-39.82053399935001 pbc="F F F"
Tc       0.00000000       0.00000000       0.00000000       0.00000000       0.00000000       0.39873219
Tc       0.00000000       0.00000000       4.41272727       0.00000000       0.00000000      -0.39873219
2
Properties=species:S:1:pos:R:3:forces:R:3 energy=-39.79720813154512 pbc="F F F"
Tc       0.00000000       0.00000000       0.00000000       0.00000000       0.00000000       0.39660314
Tc       0.00000000       0.00000000       4.47151515       0.00000000       0.00000000      -0.39660314
2
Properties=species:S:1:pos:R:3:forces:R:3 energy=-39.77364801436394 pbc="F F F"
Tc       0.00000000       0.00000000       0.00000000       0.00000000       0.00000000       0.40733916
Tc       0.00000000       0.00000000       4.53030303       0.00000000       0.00000000      -0.40733916
2
Properties=species:S:1:pos:R:3:forces:R:3 energy=-39.74903737228372 pbc="F F F"
Tc       0.00000000       0.00000000       0.00000000       0.00000000       0.00000000       0.43204769
Tc       0.00000000       0.00000000       4.58909091       0.00000000       0.00000000      -0.43204769
2
Properties=species:S:1:pos:R:3:forces:R:3 energy=-39.72266299629998 pbc="F F F"
Tc       0.00000000       0.00000000       0.00000000       0.00000000       0.00000000       0.46606246
Tc       0.00000000       0.00000000       4.64787879       0.00000000       0.00000000      -0.46606246
2
Properties=species:S:1:pos:R:3:forces:R:3 energy=-39.69422760929086 pbc="F F F"
Tc       0.00000000       0.00000000       0.00000000       0.00000000       0.00000000       0.50051612
Tc       0.00000000       0.00000000       4.70666667       0.00000000       0.00000000      -0.50051612
2
Properties=species:S:1:pos:R:3:forces:R:3 energy=-39.663998618619715 pbc="F F F"
Tc       0.00000000       0.00000000       0.00000000       0.00000000       0.00000000       0.52561527
Tc       0.00000000       0.00000000       4.76545455       0.00000000       0.00000000      -0.52561527
2
Properties=species:S:1:pos:R:3:forces:R:3 energy=-39.63275854566145 pbc="F F F"
Tc       0.00000000       0.00000000       0.00000000       0.00000000       0.00000000       0.53410137
Tc       0.00000000       0.00000000       4.82424242       0.00000000       0.00000000      -0.53410137
2
Properties=species:S:1:pos:R:3:forces:R:3 energy=-39.60158376702549 pbc="F F F"
Tc       0.00000000       0.00000000       0.00000000       0.00000000       0.00000000       0.52336204
Tc       0.00000000       0.00000000       4.88303030       0.00000000       0.00000000      -0.52336204
2
Properties=species:S:1:pos:R:3:forces:R:3 energy=-39.57156602740017 pbc="F F F"
Tc       0.00000000       0.00000000       0.00000000       0.00000000       0.00000000       0.49525887
Tc       0.00000000       0.00000000       4.94181818       0.00000000       0.00000000      -0.49525887
2
Properties=species:S:1:pos:R:3:forces:R:3 energy=-39.54360263437101 pbc="F F F"
Tc       0.00000000       0.00000000       0.00000000       0.00000000       0.00000000       0.45418715
Tc       0.00000000       0.00000000       5.00060606       0.00000000       0.00000000      -0.45418715
2
Properties=species:S:1:pos:R:3:forces:R:3 energy=-39.51832782554806 pbc="F F F"
Tc       0.00000000       0.00000000       0.00000000       0.00000000       0.00000000       0.40459770
Tc       0.00000000       0.00000000       5.05939394       0.00000000       0.00000000      -0.40459770
2
Properties=species:S:1:pos:R:3:forces:R:3 energy=-39.49613559814487 pbc="F F F"
Tc       0.00000000       0.00000000       0.00000000       0.00000000       0.00000000       0.34978566
Tc       0.00000000       0.00000000       5.11818182       0.00000000       0.00000000      -0.34978566
2
Properties=species:S:1:pos:R:3:forces:R:3 energy=-39.47725219931384 pbc="F F F"
Tc       0.00000000       0.00000000       0.00000000       0.00000000       0.00000000       0.29245591
Tc       0.00000000       0.00000000       5.17696970       0.00000000       0.00000000      -0.29245591
2
Properties=species:S:1:pos:R:3:forces:R:3 energy=-39.46173231778467 pbc="F F F"
Tc       0.00000000       0.00000000       0.00000000       0.00000000       0.00000000       0.23608139
Tc       0.00000000       0.00000000       5.23575758       0.00000000       0.00000000      -0.23608139
2
Properties=species:S:1:pos:R:3:forces:R:3 energy=-39.44939799802292 pbc="F F F"
Tc       0.00000000       0.00000000       0.00000000       0.00000000       0.00000000       0.18467303
Tc       0.00000000       0.00000000       5.29454545       0.00000000       0.00000000      -0.18467303
2
Properties=species:S:1:pos:R:3:forces:R:3 energy=-39.43987300576751 pbc="F F F"
Tc       0.00000000       0.00000000       0.00000000       0.00000000       0.00000000       0.14065899
Tc       0.00000000       0.00000000       5.35333333       0.00000000       0.00000000      -0.14065899
2
Properties=species:S:1:pos:R:3:forces:R:3 energy=-39.432681935715856 pbc="F F F"
Tc       0.00000000       0.00000000       0.00000000       0.00000000       0.00000000       0.10590786
Tc       0.00000000       0.00000000       5.41212121       0.00000000       0.00000000      -0.10590786
2
Properties=species:S:1:pos:R:3:forces:R:3 energy=-39.42708621913919 pbc="F F F"
Tc       0.00000000       0.00000000       0.00000000       0.00000000       0.00000000       0.08841690
Tc       0.00000000       0.00000000       5.47090909       0.00000000       0.00000000      -0.08841690
2
Properties=species:S:1:pos:R:3:forces:R:3 energy=-39.42179797407032 pbc="F F F"
Tc       0.00000000       0.00000000       0.00000000       0.00000000       0.00000000       0.09471589
Tc       0.00000000       0.00000000       5.52969697       0.00000000       0.00000000      -0.09471589
2
Properties=species:S:1:pos:R:3:forces:R:3 energy=-39.41582302172112 pbc="F F F"
Tc       0.00000000       0.00000000       0.00000000       0.00000000       0.00000000       0.10745208
Tc       0.00000000       0.00000000       5.58848485       0.00000000       0.00000000      -0.10745208
2
Properties=species:S:1:pos:R:3:forces:R:3 energy=-39.409399344775416 pbc="F F F"
Tc       0.00000000       0.00000000       0.00000000       0.00000000       0.00000000       0.10978701
Tc       0.00000000       0.00000000       5.64727273       0.00000000       0.00000000      -0.10978701
2
Properties=species:S:1:pos:R:3:forces:R:3 energy=-39.40277629714897 pbc="F F F"
Tc       0.00000000       0.00000000       0.00000000       0.00000000       0.00000000       0.11942076
Tc       0.00000000       0.00000000       5.70606061       0.00000000       0.00000000      -0.11942076
2
Properties=species:S:1:pos:R:3:forces:R:3 energy=-39.394810806483044 pbc="F F F"
Tc       0.00000000       0.00000000       0.00000000       0.00000000       0.00000000       0.15364832
Tc       0.00000000       0.00000000       5.76484848       0.00000000       0.00000000      -0.15364832
2
Properties=species:S:1:pos:R:3:forces:R:3 energy=-39.385103633123556 pbc="F F F"
Tc       0.00000000       0.00000000       0.00000000       0.00000000       0.00000000       0.16762921
Tc       0.00000000       0.00000000       5.82363636       0.00000000       0.00000000      -0.16762921
2
Properties=species:S:1:pos:R:3:forces:R:3 energy=-39.37650554386123 pbc="F F F"
Tc       0.00000000       0.00000000       0.00000000       0.00000000       0.00000000       0.11571821
Tc       0.00000000       0.00000000       5.88242424       0.00000000       0.00000000      -0.11571821
2
Properties=species:S:1:pos:R:3:forces:R:3 energy=-39.371958785361265 pbc="F F F"
Tc       0.00000000       0.00000000       0.00000000       0.00000000       0.00000000       0.04087040
Tc       0.00000000       0.00000000       5.94121212       0.00000000       0.00000000      -0.04087040
2
Properties=species:S:1:pos:R:3:forces:R:3 energy=-39.370823506145896 pbc="F F F"
Tc       0.00000000       0.00000000       0.00000000       0.00000000       0.00000000       0.00839509
Tc       0.00000000       0.00000000       6.00000000       0.00000000       0.00000000      -0.00839509
