2
Properties=species:S:1:pos:R:3:forces:R:3 energy=19802.535859761214 pbc="F F F"
Te       0.00000000       0.00000000       0.00000000       0.00000000       0.00000000 -138375.43750000
Te       0.00000000       0.00000000       0.18000000       0.00000000       0.00000000  138375.43750000
2
Properties=species:S:1:pos:R:3:forces:R:3 energy=15880.737031636216 pbc="F F F"
Te       0.00000000       0.00000000       0.00000000       0.00000000       0.00000000  -13482.26855469
Te       0.00000000       0.00000000       0.23878788       0.00000000       0.00000000   13482.26855469
2
Properties=species:S:1:pos:R:3:forces:R:3 energy=17217.803437886214 pbc="F F F"
Te       0.00000000       0.00000000       0.00000000       0.00000000       0.00000000   55286.35546875
Te       0.00000000       0.00000000       0.29757576       0.00000000       0.00000000  -55286.35546875
2
Properties=species:S:1:pos:R:3:forces:R:3 energy=22044.010469137007 pbc="F F F"
Te       0.00000000       0.00000000       0.00000000       0.00000000       0.00000000  105228.13281250
Te       0.00000000       0.00000000       0.35636364       0.00000000       0.00000000 -105228.13281250
2
Properties=species:S:1:pos:R:3:forces:R:3 energy=28887.3698441378 pbc="F F F"
Te       0.00000000       0.00000000       0.00000000       0.00000000       0.00000000  118874.12500000
Te       0.00000000       0.00000000       0.41515152       0.00000000       0.00000000 -118874.12500000
2
Properties=species:S:1:pos:R:3:forces:R:3 energy=34740.549531639386 pbc="F F F"
Te       0.00000000       0.00000000       0.00000000       0.00000000       0.00000000   68520.47656250
Te       0.00000000       0.00000000       0.47393939       0.00000000       0.00000000  -68520.47656250
2
Properties=species:S:1:pos:R:3:forces:R:3 energy=32641.28390664176 pbc="F F F"
Te       0.00000000       0.00000000       0.00000000       0.00000000       0.00000000 -146591.28125000
Te       0.00000000       0.00000000       0.53272727       0.00000000       0.00000000  146591.28125000
2
Properties=species:S:1:pos:R:3:forces:R:3 energy=22209.237031647303 pbc="F F F"
Te       0.00000000       0.00000000       0.00000000       0.00000000       0.00000000 -167263.31250000
Te       0.00000000       0.00000000       0.59151515       0.00000000       0.00000000  167263.31250000
2
Properties=species:S:1:pos:R:3:forces:R:3 energy=15599.48996134193 pbc="F F F"
Te       0.00000000       0.00000000       0.00000000       0.00000000       0.00000000  -43883.76171875
Te       0.00000000       0.00000000       0.65030303       0.00000000       0.00000000   43883.76171875
2
Properties=species:S:1:pos:R:3:forces:R:3 energy=9963.95187541631 pbc="F F F"
Te       0.00000000       0.00000000       0.00000000       0.00000000       0.00000000  -88296.73437500
Te       0.00000000       0.00000000       0.70909091       0.00000000       0.00000000   88296.73437500
2
Properties=species:S:1:pos:R:3:forces:R:3 energy=6739.799043402482 pbc="F F F"
Te       0.00000000       0.00000000       0.00000000       0.00000000       0.00000000  -50907.37500000
Te       0.00000000       0.00000000       0.76787879       0.00000000       0.00000000   50907.37500000
2
Properties=species:S:1:pos:R:3:forces:R:3 energy=4517.452363741909 pbc="F F F"
Te       0.00000000       0.00000000       0.00000000       0.00000000       0.00000000  -28496.68554688
Te       0.00000000       0.00000000       0.82666667       0.00000000       0.00000000   28496.68554688
2
Properties=species:S:1:pos:R:3:forces:R:3 energy=2975.2917192502564 pbc="F F F"
Te       0.00000000       0.00000000       0.00000000       0.00000000       0.00000000  -24003.90429688
Te       0.00000000       0.00000000       0.88545455       0.00000000       0.00000000   24003.90429688
2
Properties=species:S:1:pos:R:3:forces:R:3 energy=1727.6520708650257 pbc="F F F"
Te       0.00000000       0.00000000       0.00000000       0.00000000       0.00000000  -18521.20703125
Te       0.00000000       0.00000000       0.94424242       0.00000000       0.00000000   18521.20703125
2
Properties=species:S:1:pos:R:3:forces:R:3 energy=781.7908648831981 pbc="F F F"
Te       0.00000000       0.00000000       0.00000000       0.00000000       0.00000000  -14996.21191406
Te       0.00000000       0.00000000       1.00303030       0.00000000       0.00000000   14996.21191406
2
Properties=species:S:1:pos:R:3:forces:R:3 energy=105.41931346772866 pbc="F F F"
Te       0.00000000       0.00000000       0.00000000       0.00000000       0.00000000   -6449.22167969
Te       0.00000000       0.00000000       1.06181818       0.00000000       0.00000000    6449.22167969
2
Properties=species:S:1:pos:R:3:forces:R:3 energy=-50.58729727275196 pbc="F F F"
Te       0.00000000       0.00000000       0.00000000       0.00000000       0.00000000     514.21813965
Te       0.00000000       0.00000000       1.12060606       0.00000000       0.00000000    -514.21813965
2
Properties=species:S:1:pos:R:3:forces:R:3 energy=-22.81234516845902 pbc="F F F"
Te       0.00000000       0.00000000       0.00000000       0.00000000       0.00000000     416.95336914
Te       0.00000000       0.00000000       1.17939394       0.00000000       0.00000000    -416.95336914
2
Properties=species:S:1:pos:R:3:forces:R:3 energy=-3.286706369557027 pbc="F F F"
Te       0.00000000       0.00000000       0.00000000       0.00000000       0.00000000     241.77757263
Te       0.00000000       0.00000000       1.23818182       0.00000000       0.00000000    -241.77757263
2
Properties=species:S:1:pos:R:3:forces:R:3 energy=5.973242639680072 pbc="F F F"
Te       0.00000000       0.00000000       0.00000000       0.00000000       0.00000000      84.37666321
Te       0.00000000       0.00000000       1.29696970       0.00000000       0.00000000     -84.37666321
2
Properties=species:S:1:pos:R:3:forces:R:3 energy=6.3871261981609795 pbc="F F F"
Te       0.00000000       0.00000000       0.00000000       0.00000000       0.00000000     -45.97091293
Te       0.00000000       0.00000000       1.35575758       0.00000000       0.00000000      45.97091293
2
Properties=species:S:1:pos:R:3:forces:R:3 energy=2.1746136645577776 pbc="F F F"
Te       0.00000000       0.00000000       0.00000000       0.00000000       0.00000000     -86.16867828
Te       0.00000000       0.00000000       1.41454545       0.00000000       0.00000000      86.16867828
2
Properties=species:S:1:pos:R:3:forces:R:3 energy=-3.8577611310219058 pbc="F F F"
Te       0.00000000       0.00000000       0.00000000       0.00000000       0.00000000    -118.10840607
Te       0.00000000       0.00000000       1.47333333       0.00000000       0.00000000     118.10840607
2
Properties=species:S:1:pos:R:3:forces:R:3 energy=-11.349432984816218 pbc="F F F"
Te       0.00000000       0.00000000       0.00000000       0.00000000       0.00000000    -130.18394470
Te       0.00000000       0.00000000       1.53212121       0.00000000       0.00000000     130.18394470
2
Properties=species:S:1:pos:R:3:forces:R:3 energy=-18.74909038173048 pbc="F F F"
Te       0.00000000       0.00000000       0.00000000       0.00000000       0.00000000    -121.77487183
Te       0.00000000       0.00000000       1.59090909       0.00000000       0.00000000     121.77487183
2
Properties=species:S:1:pos:R:3:forces:R:3 energy=-25.600520302153416 pbc="F F F"
Te       0.00000000       0.00000000       0.00000000       0.00000000       0.00000000    -108.89427948
Te       0.00000000       0.00000000       1.64969697       0.00000000       0.00000000     108.89427948
2
Properties=species:S:1:pos:R:3:forces:R:3 energy=-31.253541899340327 pbc="F F F"
Te       0.00000000       0.00000000       0.00000000       0.00000000       0.00000000     -82.10209656
Te       0.00000000       0.00000000       1.70848485       0.00000000       0.00000000      82.10209656
2
Properties=species:S:1:pos:R:3:forces:R:3 energy=-35.31004189167252 pbc="F F F"
Te       0.00000000       0.00000000       0.00000000       0.00000000       0.00000000     -57.67457581
Te       0.00000000       0.00000000       1.76727273       0.00000000       0.00000000      57.67457581
2
Properties=species:S:1:pos:R:3:forces:R:3 energy=-38.26424097953044 pbc="F F F"
Te       0.00000000       0.00000000       0.00000000       0.00000000       0.00000000     -44.44388580
Te       0.00000000       0.00000000       1.82606061       0.00000000       0.00000000      44.44388580
2
Properties=species:S:1:pos:R:3:forces:R:3 energy=-40.656698891993074 pbc="F F F"
Te       0.00000000       0.00000000       0.00000000       0.00000000       0.00000000     -37.46426773
Te       0.00000000       0.00000000       1.88484848       0.00000000       0.00000000      37.46426773
2
Properties=species:S:1:pos:R:3:forces:R:3 energy=-42.69363430815311 pbc="F F F"
Te       0.00000000       0.00000000       0.00000000       0.00000000       0.00000000     -31.86801147
Te       0.00000000       0.00000000       1.94363636       0.00000000       0.00000000      31.86801147
2
Properties=species:S:1:pos:R:3:forces:R:3 energy=-44.40259310628047 pbc="F F F"
Te       0.00000000       0.00000000       0.00000000       0.00000000       0.00000000     -26.26429749
Te       0.00000000       0.00000000       2.00242424       0.00000000       0.00000000      26.26429749
2
Properties=species:S:1:pos:R:3:forces:R:3 energy=-45.78397959439211 pbc="F F F"
Te       0.00000000       0.00000000       0.00000000       0.00000000       0.00000000     -20.78094864
Te       0.00000000       0.00000000       2.06121212       0.00000000       0.00000000      20.78094864
2
Properties=species:S:1:pos:R:3:forces:R:3 energy=-46.85508573975622 pbc="F F F"
Te       0.00000000       0.00000000       0.00000000       0.00000000       0.00000000     -15.76214218
Te       0.00000000       0.00000000       2.12000000       0.00000000       0.00000000      15.76214218
2
Properties=species:S:1:pos:R:3:forces:R:3 energy=-47.65175055665908 pbc="F F F"
Te       0.00000000       0.00000000       0.00000000       0.00000000       0.00000000     -11.48172665
Te       0.00000000       0.00000000       2.17878788       0.00000000       0.00000000      11.48172665
2
Properties=species:S:1:pos:R:3:forces:R:3 energy=-48.22295469305097 pbc="F F F"
Te       0.00000000       0.00000000       0.00000000       0.00000000       0.00000000      -8.10860062
Te       0.00000000       0.00000000       2.23757576       0.00000000       0.00000000       8.10860062
2
Properties=species:S:1:pos:R:3:forces:R:3 energy=-48.62298122053769 pbc="F F F"
Te       0.00000000       0.00000000       0.00000000       0.00000000       0.00000000      -5.63814592
Te       0.00000000       0.00000000       2.29636364       0.00000000       0.00000000       5.63814592
2
Properties=species:S:1:pos:R:3:forces:R:3 energy=-48.899128489736256 pbc="F F F"
Te       0.00000000       0.00000000       0.00000000       0.00000000       0.00000000      -3.84140801
Te       0.00000000       0.00000000       2.35515152       0.00000000       0.00000000       3.84140801
2
Properties=species:S:1:pos:R:3:forces:R:3 energy=-49.08165841089953 pbc="F F F"
Te       0.00000000       0.00000000       0.00000000       0.00000000       0.00000000      -2.40942383
Te       0.00000000       0.00000000       2.41393939       0.00000000       0.00000000       2.40942383
2
Properties=species:S:1:pos:R:3:forces:R:3 energy=-49.18656211180969 pbc="F F F"
Te       0.00000000       0.00000000       0.00000000       0.00000000       0.00000000      -1.19702029
Te       0.00000000       0.00000000       2.47272727       0.00000000       0.00000000       1.19702029
2
Properties=species:S:1:pos:R:3:forces:R:3 energy=-49.22800727990879 pbc="F F F"
Te       0.00000000       0.00000000       0.00000000       0.00000000       0.00000000      -0.27212906
Te       0.00000000       0.00000000       2.53151515       0.00000000       0.00000000       0.27212906
2
Properties=species:S:1:pos:R:3:forces:R:3 energy=-49.22643678439255 pbc="F F F"
Te       0.00000000       0.00000000       0.00000000       0.00000000       0.00000000       0.25549650
Te       0.00000000       0.00000000       2.59030303       0.00000000       0.00000000      -0.25549650
2
Properties=species:S:1:pos:R:3:forces:R:3 energy=-49.20557412143384 pbc="F F F"
Te       0.00000000       0.00000000       0.00000000       0.00000000       0.00000000       0.40050060
Te       0.00000000       0.00000000       2.64909091       0.00000000       0.00000000      -0.40050060
2
Properties=species:S:1:pos:R:3:forces:R:3 energy=-49.18364961839133 pbc="F F F"
Te       0.00000000       0.00000000       0.00000000       0.00000000       0.00000000       0.32882044
Te       0.00000000       0.00000000       2.70787879       0.00000000       0.00000000      -0.32882044
2
Properties=species:S:1:pos:R:3:forces:R:3 energy=-49.16633941412359 pbc="F F F"
Te       0.00000000       0.00000000       0.00000000       0.00000000       0.00000000       0.28523913
Te       0.00000000       0.00000000       2.76666667       0.00000000       0.00000000      -0.28523913
2
Properties=species:S:1:pos:R:3:forces:R:3 energy=-49.145296794998195 pbc="F F F"
Te       0.00000000       0.00000000       0.00000000       0.00000000       0.00000000       0.48258755
Te       0.00000000       0.00000000       2.82545455       0.00000000       0.00000000      -0.48258755
2
Properties=species:S:1:pos:R:3:forces:R:3 energy=-49.10324863519031 pbc="F F F"
Te       0.00000000       0.00000000       0.00000000       0.00000000       0.00000000       0.99786073
Te       0.00000000       0.00000000       2.88424242       0.00000000       0.00000000      -0.99786073
2
Properties=species:S:1:pos:R:3:forces:R:3 energy=-49.02345584906927 pbc="F F F"
Te       0.00000000       0.00000000       0.00000000       0.00000000       0.00000000       1.73997164
Te       0.00000000       0.00000000       2.94303030       0.00000000       0.00000000      -1.73997164
2
Properties=species:S:1:pos:R:3:forces:R:3 energy=-48.8979417114155 pbc="F F F"
Te       0.00000000       0.00000000       0.00000000       0.00000000       0.00000000       2.52030015
Te       0.00000000       0.00000000       3.00181818       0.00000000       0.00000000      -2.52030015
2
Properties=species:S:1:pos:R:3:forces:R:3 energy=-48.72965863952148 pbc="F F F"
Te       0.00000000       0.00000000       0.00000000       0.00000000       0.00000000       3.17553043
Te       0.00000000       0.00000000       3.06060606       0.00000000       0.00000000      -3.17553043
2
Properties=species:S:1:pos:R:3:forces:R:3 energy=-48.528314938933796 pbc="F F F"
Te       0.00000000       0.00000000       0.00000000       0.00000000       0.00000000       3.64270425
Te       0.00000000       0.00000000       3.11939394       0.00000000       0.00000000      -3.64270425
2
Properties=species:S:1:pos:R:3:forces:R:3 energy=-48.304908283666755 pbc="F F F"
Te       0.00000000       0.00000000       0.00000000       0.00000000       0.00000000       3.92840219
Te       0.00000000       0.00000000       3.17818182       0.00000000       0.00000000      -3.92840219
2
Properties=species:S:1:pos:R:3:forces:R:3 energy=-48.06992890905104 pbc="F F F"
Te       0.00000000       0.00000000       0.00000000       0.00000000       0.00000000       4.03467607
Te       0.00000000       0.00000000       3.23696970       0.00000000       0.00000000      -4.03467607
2
Properties=species:S:1:pos:R:3:forces:R:3 energy=-47.834328407038946 pbc="F F F"
Te       0.00000000       0.00000000       0.00000000       0.00000000       0.00000000       3.94841313
Te       0.00000000       0.00000000       3.29575758       0.00000000       0.00000000      -3.94841313
2
Properties=species:S:1:pos:R:3:forces:R:3 energy=-47.60914978372492 pbc="F F F"
Te       0.00000000       0.00000000       0.00000000       0.00000000       0.00000000       3.68734479
Te       0.00000000       0.00000000       3.35454545       0.00000000       0.00000000      -3.68734479
2
Properties=species:S:1:pos:R:3:forces:R:3 energy=-47.40298708400268 pbc="F F F"
Te       0.00000000       0.00000000       0.00000000       0.00000000       0.00000000       3.31414223
Te       0.00000000       0.00000000       3.41333333       0.00000000       0.00000000      -3.31414223
2
Properties=species:S:1:pos:R:3:forces:R:3 energy=-47.22025362037697 pbc="F F F"
Te       0.00000000       0.00000000       0.00000000       0.00000000       0.00000000       2.90091777
Te       0.00000000       0.00000000       3.47212121       0.00000000       0.00000000      -2.90091777
2
Properties=species:S:1:pos:R:3:forces:R:3 energy=-47.06171596722427 pbc="F F F"
Te       0.00000000       0.00000000       0.00000000       0.00000000       0.00000000       2.49669504
Te       0.00000000       0.00000000       3.53090909       0.00000000       0.00000000      -2.49669504
2
Properties=species:S:1:pos:R:3:forces:R:3 energy=-46.926073145674394 pbc="F F F"
Te       0.00000000       0.00000000       0.00000000       0.00000000       0.00000000       2.12419248
Te       0.00000000       0.00000000       3.58969697       0.00000000       0.00000000      -2.12419248
2
Properties=species:S:1:pos:R:3:forces:R:3 energy=-46.811177296641134 pbc="F F F"
Te       0.00000000       0.00000000       0.00000000       0.00000000       0.00000000       1.79160750
Te       0.00000000       0.00000000       3.64848485       0.00000000       0.00000000      -1.79160750
2
Properties=species:S:1:pos:R:3:forces:R:3 energy=-46.714582979013606 pbc="F F F"
Te       0.00000000       0.00000000       0.00000000       0.00000000       0.00000000       1.50179291
Te       0.00000000       0.00000000       3.70727273       0.00000000       0.00000000      -1.50179291
2
Properties=species:S:1:pos:R:3:forces:R:3 energy=-46.633757000972494 pbc="F F F"
Te       0.00000000       0.00000000       0.00000000       0.00000000       0.00000000       1.25510371
Te       0.00000000       0.00000000       3.76606061       0.00000000       0.00000000      -1.25510371
2
Properties=species:S:1:pos:R:3:forces:R:3 energy=-46.566211931226576 pbc="F F F"
Te       0.00000000       0.00000000       0.00000000       0.00000000       0.00000000       1.04929221
Te       0.00000000       0.00000000       3.82484848       0.00000000       0.00000000      -1.04929221
2
Properties=species:S:1:pos:R:3:forces:R:3 energy=-46.509677780980496 pbc="F F F"
Te       0.00000000       0.00000000       0.00000000       0.00000000       0.00000000       0.87959361
Te       0.00000000       0.00000000       3.88363636       0.00000000       0.00000000      -0.87959361
2
Properties=species:S:1:pos:R:3:forces:R:3 energy=-46.46220499600922 pbc="F F F"
Te       0.00000000       0.00000000       0.00000000       0.00000000       0.00000000       0.73986489
Te       0.00000000       0.00000000       3.94242424       0.00000000       0.00000000      -0.73986489
2
Properties=species:S:1:pos:R:3:forces:R:3 energy=-46.422221686620475 pbc="F F F"
Te       0.00000000       0.00000000       0.00000000       0.00000000       0.00000000       0.62393129
Te       0.00000000       0.00000000       4.00121212       0.00000000       0.00000000      -0.62393129
2
Properties=species:S:1:pos:R:3:forces:R:3 energy=-46.388484039758104 pbc="F F F"
Te       0.00000000       0.00000000       0.00000000       0.00000000       0.00000000       0.52653754
Te       0.00000000       0.00000000       4.06000000       0.00000000       0.00000000      -0.52653754
2
Properties=species:S:1:pos:R:3:forces:R:3 energy=-46.36003054738665 pbc="F F F"
Te       0.00000000       0.00000000       0.00000000       0.00000000       0.00000000       0.44367221
Te       0.00000000       0.00000000       4.11878788       0.00000000       0.00000000      -0.44367221
2
Properties=species:S:1:pos:R:3:forces:R:3 energy=-46.336094272413995 pbc="F F F"
Te       0.00000000       0.00000000       0.00000000       0.00000000       0.00000000       0.37237322
Te       0.00000000       0.00000000       4.17757576       0.00000000       0.00000000      -0.37237322
2
Properties=species:S:1:pos:R:3:forces:R:3 energy=-46.316064708846305 pbc="F F F"
Te       0.00000000       0.00000000       0.00000000       0.00000000       0.00000000       0.31039035
Te       0.00000000       0.00000000       4.23636364       0.00000000       0.00000000      -0.31039035
2
Properties=species:S:1:pos:R:3:forces:R:3 energy=-46.29945344634483 pbc="F F F"
Te       0.00000000       0.00000000       0.00000000       0.00000000       0.00000000       0.25585505
Te       0.00000000       0.00000000       4.29515152       0.00000000       0.00000000      -0.25585505
2
Properties=species:S:1:pos:R:3:forces:R:3 energy=-46.2858674839761 pbc="F F F"
Te       0.00000000       0.00000000       0.00000000       0.00000000       0.00000000       0.20712405
Te       0.00000000       0.00000000       4.35393939       0.00000000       0.00000000      -0.20712405
2
Properties=species:S:1:pos:R:3:forces:R:3 energy=-46.27501302669421 pbc="F F F"
Te       0.00000000       0.00000000       0.00000000       0.00000000       0.00000000       0.16273987
Te       0.00000000       0.00000000       4.41272727       0.00000000       0.00000000      -0.16273987
2
Properties=species:S:1:pos:R:3:forces:R:3 energy=-46.26667263675504 pbc="F F F"
Te       0.00000000       0.00000000       0.00000000       0.00000000       0.00000000       0.12154382
Te       0.00000000       0.00000000       4.47151515       0.00000000       0.00000000      -0.12154382
2
Properties=species:S:1:pos:R:3:forces:R:3 energy=-46.26067467733224 pbc="F F F"
Te       0.00000000       0.00000000       0.00000000       0.00000000       0.00000000       0.08280179
Te       0.00000000       0.00000000       4.53030303       0.00000000       0.00000000      -0.08280179
2
Properties=species:S:1:pos:R:3:forces:R:3 energy=-46.256893351323114 pbc="F F F"
Te       0.00000000       0.00000000       0.00000000       0.00000000       0.00000000       0.04632337
Te       0.00000000       0.00000000       4.58909091       0.00000000       0.00000000      -0.04632337
2
Properties=species:S:1:pos:R:3:forces:R:3 energy=-46.25518002254262 pbc="F F F"
Te       0.00000000       0.00000000       0.00000000       0.00000000       0.00000000       0.01248578
Te       0.00000000       0.00000000       4.64787879       0.00000000       0.00000000      -0.01248578
2
Properties=species:S:1:pos:R:3:forces:R:3 energy=-46.25535558316099 pbc="F F F"
Te       0.00000000       0.00000000       0.00000000       0.00000000       0.00000000      -0.01788446
Te       0.00000000       0.00000000       4.70666667       0.00000000       0.00000000       0.01788446
2
Properties=species:S:1:pos:R:3:forces:R:3 energy=-46.257191396848505 pbc="F F F"
Te       0.00000000       0.00000000       0.00000000       0.00000000       0.00000000      -0.04372947
Te       0.00000000       0.00000000       4.76545455       0.00000000       0.00000000       0.04372947
2
Properties=species:S:1:pos:R:3:forces:R:3 energy=-46.26039021499374 pbc="F F F"
Te       0.00000000       0.00000000       0.00000000       0.00000000       0.00000000      -0.06406144
Te       0.00000000       0.00000000       4.82424242       0.00000000       0.00000000       0.06406144
2
Properties=species:S:1:pos:R:3:forces:R:3 energy=-46.26460144657997 pbc="F F F"
Te       0.00000000       0.00000000       0.00000000       0.00000000       0.00000000      -0.07820461
Te       0.00000000       0.00000000       4.88303030       0.00000000       0.00000000       0.07820461
2
Properties=species:S:1:pos:R:3:forces:R:3 energy=-46.26945928219115 pbc="F F F"
Te       0.00000000       0.00000000       0.00000000       0.00000000       0.00000000      -0.08598138
Te       0.00000000       0.00000000       4.94181818       0.00000000       0.00000000       0.08598138
2
Properties=species:S:1:pos:R:3:forces:R:3 energy=-46.27459415394282 pbc="F F F"
Te       0.00000000       0.00000000       0.00000000       0.00000000       0.00000000      -0.08771773
Te       0.00000000       0.00000000       5.00060606       0.00000000       0.00000000       0.08771773
2
Properties=species:S:1:pos:R:3:forces:R:3 energy=-46.27967087849498 pbc="F F F"
Te       0.00000000       0.00000000       0.00000000       0.00000000       0.00000000      -0.08418053
Te       0.00000000       0.00000000       5.05939394       0.00000000       0.00000000       0.08418053
2
Properties=species:S:1:pos:R:3:forces:R:3 energy=-46.28440771945102 pbc="F F F"
Te       0.00000000       0.00000000       0.00000000       0.00000000       0.00000000      -0.07640306
Te       0.00000000       0.00000000       5.11818182       0.00000000       0.00000000       0.07640306
2
Properties=species:S:1:pos:R:3:forces:R:3 energy=-46.28859163426746 pbc="F F F"
Te       0.00000000       0.00000000       0.00000000       0.00000000       0.00000000      -0.06546475
Te       0.00000000       0.00000000       5.17696970       0.00000000       0.00000000       0.06546475
2
Properties=species:S:1:pos:R:3:forces:R:3 energy=-46.29205921502286 pbc="F F F"
Te       0.00000000       0.00000000       0.00000000       0.00000000       0.00000000      -0.05219238
Te       0.00000000       0.00000000       5.23575758       0.00000000       0.00000000       0.05219238
2
Properties=species:S:1:pos:R:3:forces:R:3 energy=-46.294689024969145 pbc="F F F"
Te       0.00000000       0.00000000       0.00000000       0.00000000       0.00000000      -0.03698972
Te       0.00000000       0.00000000       5.29454545       0.00000000       0.00000000       0.03698972
2
Properties=species:S:1:pos:R:3:forces:R:3 energy=-46.296386357165595 pbc="F F F"
Te       0.00000000       0.00000000       0.00000000       0.00000000       0.00000000      -0.02083498
Te       0.00000000       0.00000000       5.35333333       0.00000000       0.00000000       0.02083498
2
Properties=species:S:1:pos:R:3:forces:R:3 energy=-46.29721673066814 pbc="F F F"
Te       0.00000000       0.00000000       0.00000000       0.00000000       0.00000000      -0.00878296
Te       0.00000000       0.00000000       5.41212121       0.00000000       0.00000000       0.00878296
2
Properties=species:S:1:pos:R:3:forces:R:3 energy=-46.297688159912084 pbc="F F F"
Te       0.00000000       0.00000000       0.00000000       0.00000000       0.00000000      -0.00996967
Te       0.00000000       0.00000000       5.47090909       0.00000000       0.00000000       0.00996967
2
Properties=species:S:1:pos:R:3:forces:R:3 energy=-46.29856805953873 pbc="F F F"
Te       0.00000000       0.00000000       0.00000000       0.00000000       0.00000000      -0.01958273
Te       0.00000000       0.00000000       5.52969697       0.00000000       0.00000000       0.01958273
2
Properties=species:S:1:pos:R:3:forces:R:3 energy=-46.299727372908954 pbc="F F F"
Te       0.00000000       0.00000000       0.00000000       0.00000000       0.00000000      -0.01678951
Te       0.00000000       0.00000000       5.58848485       0.00000000       0.00000000       0.01678951
2
Properties=species:S:1:pos:R:3:forces:R:3 energy=-46.30033511532806 pbc="F F F"
Te       0.00000000       0.00000000       0.00000000       0.00000000       0.00000000      -0.00417551
Te       0.00000000       0.00000000       5.64727273       0.00000000       0.00000000       0.00417551
2
Properties=species:S:1:pos:R:3:forces:R:3 energy=-46.300479615632 pbc="F F F"
Te       0.00000000       0.00000000       0.00000000       0.00000000       0.00000000      -0.00431599
Te       0.00000000       0.00000000       5.70606061       0.00000000       0.00000000       0.00431599
2
Properties=species:S:1:pos:R:3:forces:R:3 energy=-46.30122191640536 pbc="F F F"
Te       0.00000000       0.00000000       0.00000000       0.00000000       0.00000000      -0.02225932
Te       0.00000000       0.00000000       5.76484848       0.00000000       0.00000000       0.02225932
2
Properties=species:S:1:pos:R:3:forces:R:3 energy=-46.30290967462214 pbc="F F F"
Te       0.00000000       0.00000000       0.00000000       0.00000000       0.00000000      -0.03135836
Te       0.00000000       0.00000000       5.82363636       0.00000000       0.00000000       0.03135836
2
Properties=species:S:1:pos:R:3:forces:R:3 energy=-46.30446762082676 pbc="F F F"
Te       0.00000000       0.00000000       0.00000000       0.00000000       0.00000000      -0.01949444
Te       0.00000000       0.00000000       5.88242424       0.00000000       0.00000000       0.01949444
2
Properties=species:S:1:pos:R:3:forces:R:3 energy=-46.30511417131967 pbc="F F F"
Te       0.00000000       0.00000000       0.00000000       0.00000000       0.00000000      -0.00313784
Te       0.00000000       0.00000000       5.94121212       0.00000000       0.00000000       0.00313784
2
Properties=species:S:1:pos:R:3:forces:R:3 energy=-46.305036629573365 pbc="F F F"
Te       0.00000000       0.00000000       0.00000000       0.00000000       0.00000000       0.00354978
Te       0.00000000       0.00000000       6.00000000       0.00000000       0.00000000      -0.00354978
