2
Properties=species:S:1:pos:R:3:forces:R:3 energy=-270212544.0302155 pbc="F F F"
Th       0.00000000       0.00000000       0.00000000       0.00000000       0.00000000 19815510.00000000
Th       0.00000000       0.00000000       0.18000000       0.00000000       0.00000000 -19815510.00000000
2
Properties=species:S:1:pos:R:3:forces:R:3 energy=-268134832.0302155 pbc="F F F"
Th       0.00000000       0.00000000       0.00000000       0.00000000       0.00000000 54928840.00000000
Th       0.00000000       0.00000000       0.23878788       0.00000000       0.00000000 -54928840.00000000
2
Properties=species:S:1:pos:R:3:forces:R:3 energy=-263188080.0302155 pbc="F F F"
Th       0.00000000       0.00000000       0.00000000       0.00000000       0.00000000 118888264.00000000
Th       0.00000000       0.00000000       0.29757576       0.00000000       0.00000000 -118888264.00000000
2
Properties=species:S:1:pos:R:3:forces:R:3 energy=-253446288.0302155 pbc="F F F"
Th       0.00000000       0.00000000       0.00000000       0.00000000       0.00000000 218939248.00000000
Th       0.00000000       0.00000000       0.35636364       0.00000000       0.00000000 -218939248.00000000
2
Properties=species:S:1:pos:R:3:forces:R:3 energy=-236731904.0302155 pbc="F F F"
Th       0.00000000       0.00000000       0.00000000       0.00000000       0.00000000 355119328.00000000
Th       0.00000000       0.00000000       0.41515152       0.00000000       0.00000000 -355119328.00000000
2
Properties=species:S:1:pos:R:3:forces:R:3 energy=-211240240.0302155 pbc="F F F"
Th       0.00000000       0.00000000       0.00000000       0.00000000       0.00000000 513795616.00000000
Th       0.00000000       0.00000000       0.47393939       0.00000000       0.00000000 -513795616.00000000
2
Properties=species:S:1:pos:R:3:forces:R:3 energy=-176506928.0302155 pbc="F F F"
Th       0.00000000       0.00000000       0.00000000       0.00000000       0.00000000 662397952.00000000
Th       0.00000000       0.00000000       0.53272727       0.00000000       0.00000000 -662397952.00000000
2
Properties=species:S:1:pos:R:3:forces:R:3 energy=-134514064.0302155 pbc="F F F"
Th       0.00000000       0.00000000       0.00000000       0.00000000       0.00000000 751804544.00000000
Th       0.00000000       0.00000000       0.59151515       0.00000000       0.00000000 -751804544.00000000
2
Properties=species:S:1:pos:R:3:forces:R:3 energy=-90240160.0302155 pbc="F F F"
Th       0.00000000       0.00000000       0.00000000       0.00000000       0.00000000 733714944.00000000
Th       0.00000000       0.00000000       0.65030303       0.00000000       0.00000000 -733714944.00000000
2
Properties=species:S:1:pos:R:3:forces:R:3 energy=-50702804.030215494 pbc="F F F"
Th       0.00000000       0.00000000       0.00000000       0.00000000       0.00000000 592499456.00000000
Th       0.00000000       0.00000000       0.70909091       0.00000000       0.00000000 -592499456.00000000
2
Properties=species:S:1:pos:R:3:forces:R:3 energy=-22157524.030215487 pbc="F F F"
Th       0.00000000       0.00000000       0.00000000       0.00000000       0.00000000 372373440.00000000
Th       0.00000000       0.00000000       0.76787879       0.00000000       0.00000000 -372373440.00000000
2
Properties=species:S:1:pos:R:3:forces:R:3 energy=-6674364.030215467 pbc="F F F"
Th       0.00000000       0.00000000       0.00000000       0.00000000       0.00000000 164283840.00000000
Th       0.00000000       0.00000000       0.82666667       0.00000000       0.00000000 -164283840.00000000
2
Properties=species:S:1:pos:R:3:forces:R:3 energy=-1105495.155215448 pbc="F F F"
Th       0.00000000       0.00000000       0.00000000       0.00000000       0.00000000 41883160.00000000
Th       0.00000000       0.00000000       0.88545455       0.00000000       0.00000000 -41883160.00000000
2
Properties=species:S:1:pos:R:3:forces:R:3 energy=-58664.45209041625 pbc="F F F"
Th       0.00000000       0.00000000       0.00000000       0.00000000       0.00000000 3898493.00000000
Th       0.00000000       0.00000000       0.94424242       0.00000000       0.00000000 -3898493.00000000
2
Properties=species:S:1:pos:R:3:forces:R:3 energy=-143.69388114654896 pbc="F F F"
Th       0.00000000       0.00000000       0.00000000       0.00000000       0.00000000   36026.55859375
Th       0.00000000       0.00000000       1.00303030       0.00000000       0.00000000  -36026.55859375
2
Properties=species:S:1:pos:R:3:forces:R:3 energy=-80.22063737931707 pbc="F F F"
Th       0.00000000       0.00000000       0.00000000       0.00000000       0.00000000    -953.20031738
Th       0.00000000       0.00000000       1.06181818       0.00000000       0.00000000     953.20031738
2
Properties=species:S:1:pos:R:3:forces:R:3 energy=-101.48469828374607 pbc="F F F"
Th       0.00000000       0.00000000       0.00000000       0.00000000       0.00000000     109.15752411
Th       0.00000000       0.00000000       1.12060606       0.00000000       0.00000000    -109.15752411
2
Properties=species:S:1:pos:R:3:forces:R:3 energy=-97.59463775757108 pbc="F F F"
Th       0.00000000       0.00000000       0.00000000       0.00000000       0.00000000      59.35309601
Th       0.00000000       0.00000000       1.17939394       0.00000000       0.00000000     -59.35309601
2
Properties=species:S:1:pos:R:3:forces:R:3 energy=-95.13070941453759 pbc="F F F"
Th       0.00000000       0.00000000       0.00000000       0.00000000       0.00000000      23.56458473
Th       0.00000000       0.00000000       1.23818182       0.00000000       0.00000000     -23.56458473
2
Properties=species:S:1:pos:R:3:forces:R:3 energy=-94.53112276933007 pbc="F F F"
Th       0.00000000       0.00000000       0.00000000       0.00000000       0.00000000      -1.61111641
Th       0.00000000       0.00000000       1.29696970       0.00000000       0.00000000       1.61111641
2
Properties=species:S:1:pos:R:3:forces:R:3 energy=-95.79057538641368 pbc="F F F"
Th       0.00000000       0.00000000       0.00000000       0.00000000       0.00000000     -45.35421371
Th       0.00000000       0.00000000       1.35575758       0.00000000       0.00000000      45.35421371
2
Properties=species:S:1:pos:R:3:forces:R:3 energy=-99.23220264176496 pbc="F F F"
Th       0.00000000       0.00000000       0.00000000       0.00000000       0.00000000     -64.96788788
Th       0.00000000       0.00000000       1.41454545       0.00000000       0.00000000      64.96788788
2
Properties=species:S:1:pos:R:3:forces:R:3 energy=-103.08688526001731 pbc="F F F"
Th       0.00000000       0.00000000       0.00000000       0.00000000       0.00000000     -65.43790436
Th       0.00000000       0.00000000       1.47333333       0.00000000       0.00000000      65.43790436
2
Properties=species:S:1:pos:R:3:forces:R:3 energy=-106.90675487816365 pbc="F F F"
Th       0.00000000       0.00000000       0.00000000       0.00000000       0.00000000     -64.56546783
Th       0.00000000       0.00000000       1.53212121       0.00000000       0.00000000      64.56546783
2
Properties=species:S:1:pos:R:3:forces:R:3 energy=-110.68332760314962 pbc="F F F"
Th       0.00000000       0.00000000       0.00000000       0.00000000       0.00000000     -63.88666916
Th       0.00000000       0.00000000       1.59090909       0.00000000       0.00000000      63.88666916
2
Properties=species:S:1:pos:R:3:forces:R:3 energy=-114.40570864057761 pbc="F F F"
Th       0.00000000       0.00000000       0.00000000       0.00000000       0.00000000     -62.61243439
Th       0.00000000       0.00000000       1.64969697       0.00000000       0.00000000      62.61243439
2
Properties=species:S:1:pos:R:3:forces:R:3 energy=-118.02986874827216 pbc="F F F"
Th       0.00000000       0.00000000       0.00000000       0.00000000       0.00000000     -60.53456879
Th       0.00000000       0.00000000       1.70848485       0.00000000       0.00000000      60.53456879
2
Properties=species:S:1:pos:R:3:forces:R:3 energy=-121.50128061184022 pbc="F F F"
Th       0.00000000       0.00000000       0.00000000       0.00000000       0.00000000     -57.40100479
Th       0.00000000       0.00000000       1.76727273       0.00000000       0.00000000      57.40100479
2
Properties=species:S:1:pos:R:3:forces:R:3 energy=-124.76520331601657 pbc="F F F"
Th       0.00000000       0.00000000       0.00000000       0.00000000       0.00000000     -53.49312973
Th       0.00000000       0.00000000       1.82606061       0.00000000       0.00000000      53.49312973
2
Properties=species:S:1:pos:R:3:forces:R:3 energy=-127.75980822534522 pbc="F F F"
Th       0.00000000       0.00000000       0.00000000       0.00000000       0.00000000     -48.04615402
Th       0.00000000       0.00000000       1.88484848       0.00000000       0.00000000      48.04615402
2
Properties=species:S:1:pos:R:3:forces:R:3 energy=-130.3806565295775 pbc="F F F"
Th       0.00000000       0.00000000       0.00000000       0.00000000       0.00000000     -40.94420242
Th       0.00000000       0.00000000       1.94363636       0.00000000       0.00000000      40.94420242
2
Properties=species:S:1:pos:R:3:forces:R:3 energy=-132.56928415307786 pbc="F F F"
Th       0.00000000       0.00000000       0.00000000       0.00000000       0.00000000     -33.59115982
Th       0.00000000       0.00000000       2.00242424       0.00000000       0.00000000      33.59115982
2
Properties=species:S:1:pos:R:3:forces:R:3 energy=-134.3470686276446 pbc="F F F"
Th       0.00000000       0.00000000       0.00000000       0.00000000       0.00000000     -27.06647110
Th       0.00000000       0.00000000       2.06121212       0.00000000       0.00000000      27.06647110
2
Properties=species:S:1:pos:R:3:forces:R:3 energy=-135.77254264277897 pbc="F F F"
Th       0.00000000       0.00000000       0.00000000       0.00000000       0.00000000     -21.60092545
Th       0.00000000       0.00000000       2.12000000       0.00000000       0.00000000      21.60092545
2
Properties=species:S:1:pos:R:3:forces:R:3 energy=-136.905627415612 pbc="F F F"
Th       0.00000000       0.00000000       0.00000000       0.00000000       0.00000000     -17.09014893
Th       0.00000000       0.00000000       2.17878788       0.00000000       0.00000000      17.09014893
2
Properties=species:S:1:pos:R:3:forces:R:3 energy=-137.7961733751649 pbc="F F F"
Th       0.00000000       0.00000000       0.00000000       0.00000000       0.00000000     -13.30682087
Th       0.00000000       0.00000000       2.23757576       0.00000000       0.00000000      13.30682087
2
Properties=species:S:1:pos:R:3:forces:R:3 energy=-138.47997759939656 pbc="F F F"
Th       0.00000000       0.00000000       0.00000000       0.00000000       0.00000000     -10.02709389
Th       0.00000000       0.00000000       2.29636364       0.00000000       0.00000000      10.02709389
2
Properties=species:S:1:pos:R:3:forces:R:3 energy=-138.9825679917234 pbc="F F F"
Th       0.00000000       0.00000000       0.00000000       0.00000000       0.00000000      -7.13131285
Th       0.00000000       0.00000000       2.35515152       0.00000000       0.00000000       7.13131285
2
Properties=species:S:1:pos:R:3:forces:R:3 energy=-139.32576456665183 pbc="F F F"
Th       0.00000000       0.00000000       0.00000000       0.00000000       0.00000000      -4.61336136
Th       0.00000000       0.00000000       2.41393939       0.00000000       0.00000000       4.61336136
2
Properties=species:S:1:pos:R:3:forces:R:3 energy=-139.53468323712573 pbc="F F F"
Th       0.00000000       0.00000000       0.00000000       0.00000000       0.00000000      -2.59322524
Th       0.00000000       0.00000000       2.47272727       0.00000000       0.00000000       2.59322524
2
Properties=species:S:1:pos:R:3:forces:R:3 energy=-139.64406820565182 pbc="F F F"
Th       0.00000000       0.00000000       0.00000000       0.00000000       0.00000000      -1.25253463
Th       0.00000000       0.00000000       2.53151515       0.00000000       0.00000000       1.25253463
2
Properties=species:S:1:pos:R:3:forces:R:3 energy=-139.6962015006945 pbc="F F F"
Th       0.00000000       0.00000000       0.00000000       0.00000000       0.00000000      -0.62798291
Th       0.00000000       0.00000000       2.59030303       0.00000000       0.00000000       0.62798291
2
Properties=species:S:1:pos:R:3:forces:R:3 energy=-139.72720061260833 pbc="F F F"
Th       0.00000000       0.00000000       0.00000000       0.00000000       0.00000000      -0.47135416
Th       0.00000000       0.00000000       2.64909091       0.00000000       0.00000000       0.47135416
2
Properties=species:S:1:pos:R:3:forces:R:3 energy=-139.7527515005218 pbc="F F F"
Th       0.00000000       0.00000000       0.00000000       0.00000000       0.00000000      -0.37595975
Th       0.00000000       0.00000000       2.70787879       0.00000000       0.00000000       0.37595975
2
Properties=species:S:1:pos:R:3:forces:R:3 energy=-139.7663080457246 pbc="F F F"
Th       0.00000000       0.00000000       0.00000000       0.00000000       0.00000000      -0.03039701
Th       0.00000000       0.00000000       2.76666667       0.00000000       0.00000000       0.03039701
2
Properties=species:S:1:pos:R:3:forces:R:3 energy=-139.75013945613057 pbc="F F F"
Th       0.00000000       0.00000000       0.00000000       0.00000000       0.00000000       0.62216753
Th       0.00000000       0.00000000       2.82545455       0.00000000       0.00000000      -0.62216753
2
Properties=species:S:1:pos:R:3:forces:R:3 energy=-139.69063478735782 pbc="F F F"
Th       0.00000000       0.00000000       0.00000000       0.00000000       0.00000000       1.40159523
Th       0.00000000       0.00000000       2.88424242       0.00000000       0.00000000      -1.40159523
2
Properties=species:S:1:pos:R:3:forces:R:3 energy=-139.58793127030543 pbc="F F F"
Th       0.00000000       0.00000000       0.00000000       0.00000000       0.00000000       2.05293608
Th       0.00000000       0.00000000       2.94303030       0.00000000       0.00000000      -2.05293608
2
Properties=species:S:1:pos:R:3:forces:R:3 energy=-139.45484617057647 pbc="F F F"
Th       0.00000000       0.00000000       0.00000000       0.00000000       0.00000000       2.42527866
Th       0.00000000       0.00000000       3.00181818       0.00000000       0.00000000      -2.42527866
2
Properties=species:S:1:pos:R:3:forces:R:3 energy=-139.30799618591496 pbc="F F F"
Th       0.00000000       0.00000000       0.00000000       0.00000000       0.00000000       2.53525233
Th       0.00000000       0.00000000       3.06060606       0.00000000       0.00000000      -2.53525233
2
Properties=species:S:1:pos:R:3:forces:R:3 energy=-139.15946615688114 pbc="F F F"
Th       0.00000000       0.00000000       0.00000000       0.00000000       0.00000000       2.50708961
Th       0.00000000       0.00000000       3.11939394       0.00000000       0.00000000      -2.50708961
2
Properties=species:S:1:pos:R:3:forces:R:3 energy=-139.01319271166898 pbc="F F F"
Th       0.00000000       0.00000000       0.00000000       0.00000000       0.00000000       2.47889471
Th       0.00000000       0.00000000       3.17818182       0.00000000       0.00000000      -2.47889471
2
Properties=species:S:1:pos:R:3:forces:R:3 energy=-138.86618497873454 pbc="F F F"
Th       0.00000000       0.00000000       0.00000000       0.00000000       0.00000000       2.54124284
Th       0.00000000       0.00000000       3.23696970       0.00000000       0.00000000      -2.54124284
2
Properties=species:S:1:pos:R:3:forces:R:3 energy=-138.71217144054992 pbc="F F F"
Th       0.00000000       0.00000000       0.00000000       0.00000000       0.00000000       2.71556711
Th       0.00000000       0.00000000       3.29575758       0.00000000       0.00000000      -2.71556711
2
Properties=species:S:1:pos:R:3:forces:R:3 energy=-138.5454451516146 pbc="F F F"
Th       0.00000000       0.00000000       0.00000000       0.00000000       0.00000000       2.96299267
Th       0.00000000       0.00000000       3.35454545       0.00000000       0.00000000      -2.96299267
2
Properties=species:S:1:pos:R:3:forces:R:3 energy=-138.36374762107795 pbc="F F F"
Th       0.00000000       0.00000000       0.00000000       0.00000000       0.00000000       3.21304345
Th       0.00000000       0.00000000       3.41333333       0.00000000       0.00000000      -3.21304345
2
Properties=species:S:1:pos:R:3:forces:R:3 energy=-138.16898602017483 pbc="F F F"
Th       0.00000000       0.00000000       0.00000000       0.00000000       0.00000000       3.39736295
Th       0.00000000       0.00000000       3.47212121       0.00000000       0.00000000      -3.39736295
2
Properties=species:S:1:pos:R:3:forces:R:3 energy=-137.96634813444584 pbc="F F F"
Th       0.00000000       0.00000000       0.00000000       0.00000000       0.00000000       3.47826505
Th       0.00000000       0.00000000       3.53090909       0.00000000       0.00000000      -3.47826505
2
Properties=species:S:1:pos:R:3:forces:R:3 energy=-137.76192197363676 pbc="F F F"
Th       0.00000000       0.00000000       0.00000000       0.00000000       0.00000000       3.46339774
Th       0.00000000       0.00000000       3.58969697       0.00000000       0.00000000      -3.46339774
2
Properties=species:S:1:pos:R:3:forces:R:3 energy=-137.56017817287363 pbc="F F F"
Th       0.00000000       0.00000000       0.00000000       0.00000000       0.00000000       3.39536333
Th       0.00000000       0.00000000       3.64848485       0.00000000       0.00000000      -3.39536333
2
Properties=species:S:1:pos:R:3:forces:R:3 energy=-137.36282547577693 pbc="F F F"
Th       0.00000000       0.00000000       0.00000000       0.00000000       0.00000000       3.32040334
Th       0.00000000       0.00000000       3.70727273       0.00000000       0.00000000      -3.32040334
2
Properties=species:S:1:pos:R:3:forces:R:3 energy=-137.16946686872703 pbc="F F F"
Th       0.00000000       0.00000000       0.00000000       0.00000000       0.00000000       3.26036096
Th       0.00000000       0.00000000       3.76606061       0.00000000       0.00000000      -3.26036096
2
Properties=species:S:1:pos:R:3:forces:R:3 energy=-136.9793392063624 pbc="F F F"
Th       0.00000000       0.00000000       0.00000000       0.00000000       0.00000000       3.20717120
Th       0.00000000       0.00000000       3.82484848       0.00000000       0.00000000      -3.20717120
2
Properties=species:S:1:pos:R:3:forces:R:3 energy=-136.7927168681178 pbc="F F F"
Th       0.00000000       0.00000000       0.00000000       0.00000000       0.00000000       3.13671994
Th       0.00000000       0.00000000       3.88363636       0.00000000       0.00000000      -3.13671994
2
Properties=species:S:1:pos:R:3:forces:R:3 energy=-136.6113238310602 pbc="F F F"
Th       0.00000000       0.00000000       0.00000000       0.00000000       0.00000000       3.02651381
Th       0.00000000       0.00000000       3.94242424       0.00000000       0.00000000      -3.02651381
2
Properties=species:S:1:pos:R:3:forces:R:3 energy=-136.43787586820315 pbc="F F F"
Th       0.00000000       0.00000000       0.00000000       0.00000000       0.00000000       2.86603546
Th       0.00000000       0.00000000       4.00121212       0.00000000       0.00000000      -2.86603546
2
Properties=species:S:1:pos:R:3:forces:R:3 energy=-136.27528711365008 pbc="F F F"
Th       0.00000000       0.00000000       0.00000000       0.00000000       0.00000000       2.65868616
Th       0.00000000       0.00000000       4.06000000       0.00000000       0.00000000      -2.65868616
2
Properties=species:S:1:pos:R:3:forces:R:3 energy=-136.12592237559477 pbc="F F F"
Th       0.00000000       0.00000000       0.00000000       0.00000000       0.00000000       2.41926050
Th       0.00000000       0.00000000       4.11878788       0.00000000       0.00000000      -2.41926050
2
Properties=species:S:1:pos:R:3:forces:R:3 energy=-135.99103254528686 pbc="F F F"
Th       0.00000000       0.00000000       0.00000000       0.00000000       0.00000000       2.16948533
Th       0.00000000       0.00000000       4.17757576       0.00000000       0.00000000      -2.16948533
2
Properties=species:S:1:pos:R:3:forces:R:3 energy=-135.87058677569468 pbc="F F F"
Th       0.00000000       0.00000000       0.00000000       0.00000000       0.00000000       1.93240857
Th       0.00000000       0.00000000       4.23636364       0.00000000       0.00000000      -1.93240857
2
Properties=species:S:1:pos:R:3:forces:R:3 energy=-135.76321144634912 pbc="F F F"
Th       0.00000000       0.00000000       0.00000000       0.00000000       0.00000000       1.72639441
Th       0.00000000       0.00000000       4.29515152       0.00000000       0.00000000      -1.72639441
2
Properties=species:S:1:pos:R:3:forces:R:3 energy=-135.66680049906694 pbc="F F F"
Th       0.00000000       0.00000000       0.00000000       0.00000000       0.00000000       1.56121373
Th       0.00000000       0.00000000       4.35393939       0.00000000       0.00000000      -1.56121373
2
Properties=species:S:1:pos:R:3:forces:R:3 energy=-135.5788511313102 pbc="F F F"
Th       0.00000000       0.00000000       0.00000000       0.00000000       0.00000000       1.43719637
Th       0.00000000       0.00000000       4.41272727       0.00000000       0.00000000      -1.43719637
2
Properties=species:S:1:pos:R:3:forces:R:3 energy=-135.49715047020433 pbc="F F F"
Th       0.00000000       0.00000000       0.00000000       0.00000000       0.00000000       1.34720695
Th       0.00000000       0.00000000       4.47151515       0.00000000       0.00000000      -1.34720695
2
Properties=species:S:1:pos:R:3:forces:R:3 energy=-135.42000442269608 pbc="F F F"
Th       0.00000000       0.00000000       0.00000000       0.00000000       0.00000000       1.27956998
Th       0.00000000       0.00000000       4.53030303       0.00000000       0.00000000      -1.27956998
2
Properties=species:S:1:pos:R:3:forces:R:3 energy=-135.3465123559312 pbc="F F F"
Th       0.00000000       0.00000000       0.00000000       0.00000000       0.00000000       1.22117269
Th       0.00000000       0.00000000       4.58909091       0.00000000       0.00000000      -1.22117269
2
Properties=species:S:1:pos:R:3:forces:R:3 energy=-135.27647554452017 pbc="F F F"
Th       0.00000000       0.00000000       0.00000000       0.00000000       0.00000000       1.16033697
Th       0.00000000       0.00000000       4.64787879       0.00000000       0.00000000      -1.16033697
2
Properties=species:S:1:pos:R:3:forces:R:3 energy=-135.21029035584684 pbc="F F F"
Th       0.00000000       0.00000000       0.00000000       0.00000000       0.00000000       1.08926570
Th       0.00000000       0.00000000       4.70666667       0.00000000       0.00000000      -1.08926570
2
Properties=species:S:1:pos:R:3:forces:R:3 energy=-135.14865833307638 pbc="F F F"
Th       0.00000000       0.00000000       0.00000000       0.00000000       0.00000000       1.00565779
Th       0.00000000       0.00000000       4.76545455       0.00000000       0.00000000      -1.00565779
2
Properties=species:S:1:pos:R:3:forces:R:3 energy=-135.0922352430068 pbc="F F F"
Th       0.00000000       0.00000000       0.00000000       0.00000000       0.00000000       0.91266084
Th       0.00000000       0.00000000       4.82424242       0.00000000       0.00000000      -0.91266084
2
Properties=species:S:1:pos:R:3:forces:R:3 energy=-135.04140223224675 pbc="F F F"
Th       0.00000000       0.00000000       0.00000000       0.00000000       0.00000000       0.81732666
Th       0.00000000       0.00000000       4.88303030       0.00000000       0.00000000      -0.81732666
2
Properties=species:S:1:pos:R:3:forces:R:3 energy=-134.99602162640207 pbc="F F F"
Th       0.00000000       0.00000000       0.00000000       0.00000000       0.00000000       0.72805572
Th       0.00000000       0.00000000       4.94181818       0.00000000       0.00000000      -0.72805572
2
Properties=species:S:1:pos:R:3:forces:R:3 energy=-134.95552853666308 pbc="F F F"
Th       0.00000000       0.00000000       0.00000000       0.00000000       0.00000000       0.65260720
Th       0.00000000       0.00000000       5.00060606       0.00000000       0.00000000      -0.65260720
2
Properties=species:S:1:pos:R:3:forces:R:3 energy=-134.9189003327229 pbc="F F F"
Th       0.00000000       0.00000000       0.00000000       0.00000000       0.00000000       0.59675562
Th       0.00000000       0.00000000       5.05939394       0.00000000       0.00000000      -0.59675562
2
Properties=species:S:1:pos:R:3:forces:R:3 energy=-134.8849160326882 pbc="F F F"
Th       0.00000000       0.00000000       0.00000000       0.00000000       0.00000000       0.56352246
Th       0.00000000       0.00000000       5.11818182       0.00000000       0.00000000      -0.56352246
2
Properties=species:S:1:pos:R:3:forces:R:3 energy=-134.85223261603142 pbc="F F F"
Th       0.00000000       0.00000000       0.00000000       0.00000000       0.00000000       0.55157173
Th       0.00000000       0.00000000       5.17696970       0.00000000       0.00000000      -0.55157173
2
Properties=species:S:1:pos:R:3:forces:R:3 energy=-134.8198122696843 pbc="F F F"
Th       0.00000000       0.00000000       0.00000000       0.00000000       0.00000000       0.55249858
Th       0.00000000       0.00000000       5.23575758       0.00000000       0.00000000      -0.55249858
2
Properties=species:S:1:pos:R:3:forces:R:3 energy=-134.78733436742334 pbc="F F F"
Th       0.00000000       0.00000000       0.00000000       0.00000000       0.00000000       0.55030257
Th       0.00000000       0.00000000       5.29454545       0.00000000       0.00000000      -0.55030257
2
Properties=species:S:1:pos:R:3:forces:R:3 energy=-134.75542438179986 pbc="F F F"
Th       0.00000000       0.00000000       0.00000000       0.00000000       0.00000000       0.53286803
Th       0.00000000       0.00000000       5.35333333       0.00000000       0.00000000      -0.53286803
2
Properties=species:S:1:pos:R:3:forces:R:3 energy=-134.7246315199302 pbc="F F F"
Th       0.00000000       0.00000000       0.00000000       0.00000000       0.00000000       0.51935548
Th       0.00000000       0.00000000       5.41212121       0.00000000       0.00000000      -0.51935548
2
Properties=species:S:1:pos:R:3:forces:R:3 energy=-134.6934298427195 pbc="F F F"
Th       0.00000000       0.00000000       0.00000000       0.00000000       0.00000000       0.54973048
Th       0.00000000       0.00000000       5.47090909       0.00000000       0.00000000      -0.54973048
2
Properties=species:S:1:pos:R:3:forces:R:3 energy=-134.6597899201351 pbc="F F F"
Th       0.00000000       0.00000000       0.00000000       0.00000000       0.00000000       0.58794665
Th       0.00000000       0.00000000       5.52969697       0.00000000       0.00000000      -0.58794665
2
Properties=species:S:1:pos:R:3:forces:R:3 energy=-134.62583276662227 pbc="F F F"
Th       0.00000000       0.00000000       0.00000000       0.00000000       0.00000000       0.55317640
Th       0.00000000       0.00000000       5.58848485       0.00000000       0.00000000      -0.55317640
2
Properties=species:S:1:pos:R:3:forces:R:3 energy=-134.59567835818208 pbc="F F F"
Th       0.00000000       0.00000000       0.00000000       0.00000000       0.00000000       0.47460088
Th       0.00000000       0.00000000       5.64727273       0.00000000       0.00000000      -0.47460088
2
Properties=species:S:1:pos:R:3:forces:R:3 energy=-134.5688690752786 pbc="F F F"
Th       0.00000000       0.00000000       0.00000000       0.00000000       0.00000000       0.45341456
Th       0.00000000       0.00000000       5.70606061       0.00000000       0.00000000      -0.45341456
2
Properties=species:S:1:pos:R:3:forces:R:3 energy=-134.54085802210264 pbc="F F F"
Th       0.00000000       0.00000000       0.00000000       0.00000000       0.00000000       0.49786997
Th       0.00000000       0.00000000       5.76484848       0.00000000       0.00000000      -0.49786997
2
Properties=species:S:1:pos:R:3:forces:R:3 energy=-134.51213375867255 pbc="F F F"
Th       0.00000000       0.00000000       0.00000000       0.00000000       0.00000000       0.45320114
Th       0.00000000       0.00000000       5.82363636       0.00000000       0.00000000      -0.45320114
2
Properties=species:S:1:pos:R:3:forces:R:3 energy=-134.49053963993953 pbc="F F F"
Th       0.00000000       0.00000000       0.00000000       0.00000000       0.00000000       0.26996231
Th       0.00000000       0.00000000       5.88242424       0.00000000       0.00000000      -0.26996231
2
Properties=species:S:1:pos:R:3:forces:R:3 energy=-134.48050112338075 pbc="F F F"
Th       0.00000000       0.00000000       0.00000000       0.00000000       0.00000000       0.08171681
Th       0.00000000       0.00000000       5.94121212       0.00000000       0.00000000      -0.08171681
2
Properties=species:S:1:pos:R:3:forces:R:3 energy=-134.47863122507812 pbc="F F F"
Th       0.00000000       0.00000000       0.00000000       0.00000000       0.00000000       0.00671351
Th       0.00000000       0.00000000       6.00000000       0.00000000       0.00000000      -0.00671351
