2
Properties=species:S:1:pos:R:3:forces:R:3 energy=1203601.6132941663 pbc="F F F"
Ti       0.00000000       0.00000000       0.00000000       0.00000000       0.00000000 -348762.93750000
Ti       0.00000000       0.00000000       0.18000000       0.00000000       0.00000000  348762.93750000
2
Properties=species:S:1:pos:R:3:forces:R:3 energy=1170438.1132941663 pbc="F F F"
Ti       0.00000000       0.00000000       0.00000000       0.00000000       0.00000000 -842205.87500000
Ti       0.00000000       0.00000000       0.23878788       0.00000000       0.00000000  842205.87500000
2
Properties=species:S:1:pos:R:3:forces:R:3 energy=1096965.3632941663 pbc="F F F"
Ti       0.00000000       0.00000000       0.00000000       0.00000000       0.00000000 -1721070.75000000
Ti       0.00000000       0.00000000       0.29757576       0.00000000       0.00000000 1721070.75000000
2
Properties=species:S:1:pos:R:3:forces:R:3 energy=961918.113294167 pbc="F F F"
Ti       0.00000000       0.00000000       0.00000000       0.00000000       0.00000000 -2904237.00000000
Ti       0.00000000       0.00000000       0.35636364       0.00000000       0.00000000 2904237.00000000
2
Properties=species:S:1:pos:R:3:forces:R:3 energy=756333.0507941678 pbc="F F F"
Ti       0.00000000       0.00000000       0.00000000       0.00000000       0.00000000 -4033570.75000000
Ti       0.00000000       0.00000000       0.41515152       0.00000000       0.00000000 4033570.75000000
2
Properties=species:S:1:pos:R:3:forces:R:3 energy=501754.67579416855 pbc="F F F"
Ti       0.00000000       0.00000000       0.00000000       0.00000000       0.00000000 -4254534.50000000
Ti       0.00000000       0.00000000       0.47393939       0.00000000       0.00000000 4254534.50000000
2
Properties=species:S:1:pos:R:3:forces:R:3 energy=264495.6445441701 pbc="F F F"
Ti       0.00000000       0.00000000       0.00000000       0.00000000       0.00000000 -3620301.00000000
Ti       0.00000000       0.00000000       0.53272727       0.00000000       0.00000000 3620301.00000000
2
Properties=species:S:1:pos:R:3:forces:R:3 energy=92754.34766917332 pbc="F F F"
Ti       0.00000000       0.00000000       0.00000000       0.00000000       0.00000000 -2095921.62500000
Ti       0.00000000       0.00000000       0.59151515       0.00000000       0.00000000 2095921.62500000
2
Properties=species:S:1:pos:R:3:forces:R:3 energy=23147.89063792886 pbc="F F F"
Ti       0.00000000       0.00000000       0.00000000       0.00000000       0.00000000 -547933.68750000
Ti       0.00000000       0.00000000       0.65030303       0.00000000       0.00000000  547933.68750000
2
Properties=species:S:1:pos:R:3:forces:R:3 energy=3969.8691535625712 pbc="F F F"
Ti       0.00000000       0.00000000       0.00000000       0.00000000       0.00000000 -151343.46875000
Ti       0.00000000       0.00000000       0.70909091       0.00000000       0.00000000  151343.46875000
2
Properties=species:S:1:pos:R:3:forces:R:3 energy=337.1121650498518 pbc="F F F"
Ti       0.00000000       0.00000000       0.00000000       0.00000000       0.00000000  -15490.17968750
Ti       0.00000000       0.00000000       0.76787879       0.00000000       0.00000000   15490.17968750
2
Properties=species:S:1:pos:R:3:forces:R:3 energy=-26.604460146348206 pbc="F F F"
Ti       0.00000000       0.00000000       0.00000000       0.00000000       0.00000000     659.95922852
Ti       0.00000000       0.00000000       0.82666667       0.00000000       0.00000000    -659.95922852
2
Properties=species:S:1:pos:R:3:forces:R:3 energy=-26.356615421792885 pbc="F F F"
Ti       0.00000000       0.00000000       0.00000000       0.00000000       0.00000000    -102.92640686
Ti       0.00000000       0.00000000       0.88545455       0.00000000       0.00000000     102.92640686
2
Properties=species:S:1:pos:R:3:forces:R:3 energy=-29.318855604479143 pbc="F F F"
Ti       0.00000000       0.00000000       0.00000000       0.00000000       0.00000000      28.80557632
Ti       0.00000000       0.00000000       0.94424242       0.00000000       0.00000000     -28.80557632
2
Properties=species:S:1:pos:R:3:forces:R:3 energy=-26.45414569966801 pbc="F F F"
Ti       0.00000000       0.00000000       0.00000000       0.00000000       0.00000000      52.75246048
Ti       0.00000000       0.00000000       1.00303030       0.00000000       0.00000000     -52.75246048
2
Properties=species:S:1:pos:R:3:forces:R:3 energy=-23.546041688688742 pbc="F F F"
Ti       0.00000000       0.00000000       0.00000000       0.00000000       0.00000000      45.80151749
Ti       0.00000000       0.00000000       1.06181818       0.00000000       0.00000000     -45.80151749
2
Properties=species:S:1:pos:R:3:forces:R:3 energy=-21.08835231312749 pbc="F F F"
Ti       0.00000000       0.00000000       0.00000000       0.00000000       0.00000000      37.86963654
Ti       0.00000000       0.00000000       1.12060606       0.00000000       0.00000000     -37.86963654
2
Properties=species:S:1:pos:R:3:forces:R:3 energy=-19.077959051633965 pbc="F F F"
Ti       0.00000000       0.00000000       0.00000000       0.00000000       0.00000000      30.48093033
Ti       0.00000000       0.00000000       1.17939394       0.00000000       0.00000000     -30.48093033
2
Properties=species:S:1:pos:R:3:forces:R:3 energy=-17.504070119308064 pbc="F F F"
Ti       0.00000000       0.00000000       0.00000000       0.00000000       0.00000000      23.09062767
Ti       0.00000000       0.00000000       1.23818182       0.00000000       0.00000000     -23.09062767
2
Properties=species:S:1:pos:R:3:forces:R:3 energy=-16.404359461593376 pbc="F F F"
Ti       0.00000000       0.00000000       0.00000000       0.00000000       0.00000000      14.09070969
Ti       0.00000000       0.00000000       1.29696970       0.00000000       0.00000000     -14.09070969
2
Properties=species:S:1:pos:R:3:forces:R:3 energy=-15.849320764730678 pbc="F F F"
Ti       0.00000000       0.00000000       0.00000000       0.00000000       0.00000000       4.75674295
Ti       0.00000000       0.00000000       1.35575758       0.00000000       0.00000000      -4.75674295
2
Properties=species:S:1:pos:R:3:forces:R:3 energy=-15.811388063892737 pbc="F F F"
Ti       0.00000000       0.00000000       0.00000000       0.00000000       0.00000000      -2.98567343
Ti       0.00000000       0.00000000       1.41454545       0.00000000       0.00000000       2.98567343
2
Properties=species:S:1:pos:R:3:forces:R:3 energy=-16.177576688328713 pbc="F F F"
Ti       0.00000000       0.00000000       0.00000000       0.00000000       0.00000000      -9.25034618
Ti       0.00000000       0.00000000       1.47333333       0.00000000       0.00000000       9.25034618
2
Properties=species:S:1:pos:R:3:forces:R:3 energy=-16.801798027584493 pbc="F F F"
Ti       0.00000000       0.00000000       0.00000000       0.00000000       0.00000000     -10.89626789
Ti       0.00000000       0.00000000       1.53212121       0.00000000       0.00000000      10.89626789
2
Properties=species:S:1:pos:R:3:forces:R:3 energy=-17.379502847804886 pbc="F F F"
Ti       0.00000000       0.00000000       0.00000000       0.00000000       0.00000000      -8.53897381
Ti       0.00000000       0.00000000       1.59090909       0.00000000       0.00000000       8.53897381
2
Properties=species:S:1:pos:R:3:forces:R:3 energy=-17.80149352845297 pbc="F F F"
Ti       0.00000000       0.00000000       0.00000000       0.00000000       0.00000000      -5.82069159
Ti       0.00000000       0.00000000       1.64969697       0.00000000       0.00000000       5.82069159
2
Properties=species:S:1:pos:R:3:forces:R:3 energy=-18.065103563669894 pbc="F F F"
Ti       0.00000000       0.00000000       0.00000000       0.00000000       0.00000000      -3.20146322
Ti       0.00000000       0.00000000       1.70848485       0.00000000       0.00000000       3.20146322
2
Properties=species:S:1:pos:R:3:forces:R:3 energy=-18.192250311642464 pbc="F F F"
Ti       0.00000000       0.00000000       0.00000000       0.00000000       0.00000000      -1.29542351
Ti       0.00000000       0.00000000       1.76727273       0.00000000       0.00000000       1.29542351
2
Properties=species:S:1:pos:R:3:forces:R:3 energy=-18.237058611651594 pbc="F F F"
Ti       0.00000000       0.00000000       0.00000000       0.00000000       0.00000000      -0.36087856
Ti       0.00000000       0.00000000       1.82606061       0.00000000       0.00000000       0.36087856
2
Properties=species:S:1:pos:R:3:forces:R:3 energy=-18.244299728639344 pbc="F F F"
Ti       0.00000000       0.00000000       0.00000000       0.00000000       0.00000000       0.07460474
Ti       0.00000000       0.00000000       1.88484848       0.00000000       0.00000000      -0.07460474
2
Properties=species:S:1:pos:R:3:forces:R:3 energy=-18.23040942119905 pbc="F F F"
Ti       0.00000000       0.00000000       0.00000000       0.00000000       0.00000000       0.39109862
Ti       0.00000000       0.00000000       1.94363636       0.00000000       0.00000000      -0.39109862
2
Properties=species:S:1:pos:R:3:forces:R:3 energy=-18.198765938756615 pbc="F F F"
Ti       0.00000000       0.00000000       0.00000000       0.00000000       0.00000000       0.68256879
Ti       0.00000000       0.00000000       2.00242424       0.00000000       0.00000000      -0.68256879
2
Properties=species:S:1:pos:R:3:forces:R:3 energy=-18.150560041818633 pbc="F F F"
Ti       0.00000000       0.00000000       0.00000000       0.00000000       0.00000000       0.95292330
Ti       0.00000000       0.00000000       2.06121212       0.00000000       0.00000000      -0.95292330
2
Properties=species:S:1:pos:R:3:forces:R:3 energy=-18.08752092153481 pbc="F F F"
Ti       0.00000000       0.00000000       0.00000000       0.00000000       0.00000000       1.18129373
Ti       0.00000000       0.00000000       2.12000000       0.00000000       0.00000000      -1.18129373
2
Properties=species:S:1:pos:R:3:forces:R:3 energy=-18.013585320612947 pbc="F F F"
Ti       0.00000000       0.00000000       0.00000000       0.00000000       0.00000000       1.31090486
Ti       0.00000000       0.00000000       2.17878788       0.00000000       0.00000000      -1.31090486
2
Properties=species:S:1:pos:R:3:forces:R:3 energy=-17.936692947100813 pbc="F F F"
Ti       0.00000000       0.00000000       0.00000000       0.00000000       0.00000000       1.27541113
Ti       0.00000000       0.00000000       2.23757576       0.00000000       0.00000000      -1.27541113
2
Properties=species:S:1:pos:R:3:forces:R:3 energy=-17.86654213168326 pbc="F F F"
Ti       0.00000000       0.00000000       0.00000000       0.00000000       0.00000000       1.09500420
Ti       0.00000000       0.00000000       2.29636364       0.00000000       0.00000000      -1.09500420
2
Properties=species:S:1:pos:R:3:forces:R:3 energy=-17.80850655446993 pbc="F F F"
Ti       0.00000000       0.00000000       0.00000000       0.00000000       0.00000000       0.88564664
Ti       0.00000000       0.00000000       2.35515152       0.00000000       0.00000000      -0.88564664
2
Properties=species:S:1:pos:R:3:forces:R:3 energy=-17.760764311972107 pbc="F F F"
Ti       0.00000000       0.00000000       0.00000000       0.00000000       0.00000000       0.75721854
Ti       0.00000000       0.00000000       2.41393939       0.00000000       0.00000000      -0.75721854
2
Properties=species:S:1:pos:R:3:forces:R:3 energy=-17.717251188595537 pbc="F F F"
Ti       0.00000000       0.00000000       0.00000000       0.00000000       0.00000000       0.73998296
Ti       0.00000000       0.00000000       2.47272727       0.00000000       0.00000000      -0.73998296
2
Properties=species:S:1:pos:R:3:forces:R:3 energy=-17.672263313167363 pbc="F F F"
Ti       0.00000000       0.00000000       0.00000000       0.00000000       0.00000000       0.79870909
Ti       0.00000000       0.00000000       2.53151515       0.00000000       0.00000000      -0.79870909
2
Properties=species:S:1:pos:R:3:forces:R:3 energy=-17.622926480383793 pbc="F F F"
Ti       0.00000000       0.00000000       0.00000000       0.00000000       0.00000000       0.87878913
Ti       0.00000000       0.00000000       2.59030303       0.00000000       0.00000000      -0.87878913
2
Properties=species:S:1:pos:R:3:forces:R:3 energy=-17.569566280648676 pbc="F F F"
Ti       0.00000000       0.00000000       0.00000000       0.00000000       0.00000000       0.92686296
Ti       0.00000000       0.00000000       2.64909091       0.00000000       0.00000000      -0.92686296
2
Properties=species:S:1:pos:R:3:forces:R:3 energy=-17.515524099665846 pbc="F F F"
Ti       0.00000000       0.00000000       0.00000000       0.00000000       0.00000000       0.89561266
Ti       0.00000000       0.00000000       2.70787879       0.00000000       0.00000000      -0.89561266
2
Properties=species:S:1:pos:R:3:forces:R:3 energy=-17.466211622785508 pbc="F F F"
Ti       0.00000000       0.00000000       0.00000000       0.00000000       0.00000000       0.76679951
Ti       0.00000000       0.00000000       2.76666667       0.00000000       0.00000000      -0.76679951
2
Properties=species:S:1:pos:R:3:forces:R:3 energy=-17.426709041011776 pbc="F F F"
Ti       0.00000000       0.00000000       0.00000000       0.00000000       0.00000000       0.57037175
Ti       0.00000000       0.00000000       2.82545455       0.00000000       0.00000000      -0.57037175
2
Properties=species:S:1:pos:R:3:forces:R:3 energy=-17.399335096009153 pbc="F F F"
Ti       0.00000000       0.00000000       0.00000000       0.00000000       0.00000000       0.36439523
Ti       0.00000000       0.00000000       2.88424242       0.00000000       0.00000000      -0.36439523
2
Properties=species:S:1:pos:R:3:forces:R:3 energy=-17.38290657465231 pbc="F F F"
Ti       0.00000000       0.00000000       0.00000000       0.00000000       0.00000000       0.20694807
Ti       0.00000000       0.00000000       2.94303030       0.00000000       0.00000000      -0.20694807
2
Properties=species:S:1:pos:R:3:forces:R:3 energy=-17.373199209264904 pbc="F F F"
Ti       0.00000000       0.00000000       0.00000000       0.00000000       0.00000000       0.14021473
Ti       0.00000000       0.00000000       3.00181818       0.00000000       0.00000000      -0.14021473
2
Properties=species:S:1:pos:R:3:forces:R:3 energy=-17.36451194581863 pbc="F F F"
Ti       0.00000000       0.00000000       0.00000000       0.00000000       0.00000000       0.16964433
Ti       0.00000000       0.00000000       3.06060606       0.00000000       0.00000000      -0.16964433
2
Properties=species:S:1:pos:R:3:forces:R:3 energy=-17.351892242163363 pbc="F F F"
Ti       0.00000000       0.00000000       0.00000000       0.00000000       0.00000000       0.26842070
Ti       0.00000000       0.00000000       3.11939394       0.00000000       0.00000000      -0.26842070
2
Properties=species:S:1:pos:R:3:forces:R:3 energy=-17.33223153809015 pbc="F F F"
Ti       0.00000000       0.00000000       0.00000000       0.00000000       0.00000000       0.40420690
Ti       0.00000000       0.00000000       3.17818182       0.00000000       0.00000000      -0.40420690
2
Properties=species:S:1:pos:R:3:forces:R:3 energy=-17.304179515917657 pbc="F F F"
Ti       0.00000000       0.00000000       0.00000000       0.00000000       0.00000000       0.54971075
Ti       0.00000000       0.00000000       3.23696970       0.00000000       0.00000000      -0.54971075
2
Properties=species:S:1:pos:R:3:forces:R:3 energy=-17.267894901786324 pbc="F F F"
Ti       0.00000000       0.00000000       0.00000000       0.00000000       0.00000000       0.68008745
Ti       0.00000000       0.00000000       3.29575758       0.00000000       0.00000000      -0.68008745
2
Properties=species:S:1:pos:R:3:forces:R:3 energy=-17.22498468128278 pbc="F F F"
Ti       0.00000000       0.00000000       0.00000000       0.00000000       0.00000000       0.77152103
Ti       0.00000000       0.00000000       3.35454545       0.00000000       0.00000000      -0.77152103
2
Properties=species:S:1:pos:R:3:forces:R:3 energy=-17.1782945149298 pbc="F F F"
Ti       0.00000000       0.00000000       0.00000000       0.00000000       0.00000000       0.80673659
Ti       0.00000000       0.00000000       3.41333333       0.00000000       0.00000000      -0.80673659
2
Properties=species:S:1:pos:R:3:forces:R:3 energy=-17.13130028409092 pbc="F F F"
Ti       0.00000000       0.00000000       0.00000000       0.00000000       0.00000000       0.78297335
Ti       0.00000000       0.00000000       3.47212121       0.00000000       0.00000000      -0.78297335
2
Properties=species:S:1:pos:R:3:forces:R:3 energy=-17.087127280391762 pbc="F F F"
Ti       0.00000000       0.00000000       0.00000000       0.00000000       0.00000000       0.71412271
Ti       0.00000000       0.00000000       3.53090909       0.00000000       0.00000000      -0.71412271
2
Properties=species:S:1:pos:R:3:forces:R:3 energy=-17.047738789636455 pbc="F F F"
Ti       0.00000000       0.00000000       0.00000000       0.00000000       0.00000000       0.62474030
Ti       0.00000000       0.00000000       3.58969697       0.00000000       0.00000000      -0.62474030
2
Properties=species:S:1:pos:R:3:forces:R:3 energy=-17.013550414254155 pbc="F F F"
Ti       0.00000000       0.00000000       0.00000000       0.00000000       0.00000000       0.54143244
Ti       0.00000000       0.00000000       3.64848485       0.00000000       0.00000000      -0.54143244
2
Properties=species:S:1:pos:R:3:forces:R:3 energy=-16.983506962794923 pbc="F F F"
Ti       0.00000000       0.00000000       0.00000000       0.00000000       0.00000000       0.48719892
Ti       0.00000000       0.00000000       3.70727273       0.00000000       0.00000000      -0.48719892
2
Properties=species:S:1:pos:R:3:forces:R:3 energy=-16.95536478821255 pbc="F F F"
Ti       0.00000000       0.00000000       0.00000000       0.00000000       0.00000000       0.47878885
Ti       0.00000000       0.00000000       3.76606061       0.00000000       0.00000000      -0.47878885
2
Properties=species:S:1:pos:R:3:forces:R:3 energy=-16.926144022727655 pbc="F F F"
Ti       0.00000000       0.00000000       0.00000000       0.00000000       0.00000000       0.52445465
Ti       0.00000000       0.00000000       3.82484848       0.00000000       0.00000000      -0.52445465
2
Properties=species:S:1:pos:R:3:forces:R:3 energy=-16.892679735058334 pbc="F F F"
Ti       0.00000000       0.00000000       0.00000000       0.00000000       0.00000000       0.62191904
Ti       0.00000000       0.00000000       3.88363636       0.00000000       0.00000000      -0.62191904
2
Properties=species:S:1:pos:R:3:forces:R:3 energy=-16.852251418825407 pbc="F F F"
Ti       0.00000000       0.00000000       0.00000000       0.00000000       0.00000000       0.75852841
Ti       0.00000000       0.00000000       3.94242424       0.00000000       0.00000000      -0.75852841
2
Properties=species:S:1:pos:R:3:forces:R:3 energy=-16.80311319745849 pbc="F F F"
Ti       0.00000000       0.00000000       0.00000000       0.00000000       0.00000000       0.91459429
Ti       0.00000000       0.00000000       4.00121212       0.00000000       0.00000000      -0.91459429
2
Properties=species:S:1:pos:R:3:forces:R:3 energy=-16.744764746897403 pbc="F F F"
Ti       0.00000000       0.00000000       0.00000000       0.00000000       0.00000000       1.06828463
Ti       0.00000000       0.00000000       4.06000000       0.00000000       0.00000000      -1.06828463
2
Properties=species:S:1:pos:R:3:forces:R:3 energy=-16.67794741120281 pbc="F F F"
Ti       0.00000000       0.00000000       0.00000000       0.00000000       0.00000000       1.19976866
Ti       0.00000000       0.00000000       4.11878788       0.00000000       0.00000000      -1.19976866
2
Properties=species:S:1:pos:R:3:forces:R:3 energy=-16.604442128139276 pbc="F F F"
Ti       0.00000000       0.00000000       0.00000000       0.00000000       0.00000000       1.29363072
Ti       0.00000000       0.00000000       4.17757576       0.00000000       0.00000000      -1.29363072
2
Properties=species:S:1:pos:R:3:forces:R:3 energy=-16.526781254804977 pbc="F F F"
Ti       0.00000000       0.00000000       0.00000000       0.00000000       0.00000000       1.33992231
Ti       0.00000000       0.00000000       4.23636364       0.00000000       0.00000000      -1.33992231
2
Properties=species:S:1:pos:R:3:forces:R:3 energy=-16.44791120767815 pbc="F F F"
Ti       0.00000000       0.00000000       0.00000000       0.00000000       0.00000000       1.33465290
Ti       0.00000000       0.00000000       4.29515152       0.00000000       0.00000000      -1.33465290
2
Properties=species:S:1:pos:R:3:forces:R:3 energy=-16.370831802663105 pbc="F F F"
Ti       0.00000000       0.00000000       0.00000000       0.00000000       0.00000000       1.27999413
Ti       0.00000000       0.00000000       4.35393939       0.00000000       0.00000000      -1.27999413
2
Properties=species:S:1:pos:R:3:forces:R:3 energy=-16.298233931709905 pbc="F F F"
Ti       0.00000000       0.00000000       0.00000000       0.00000000       0.00000000       1.18387127
Ti       0.00000000       0.00000000       4.41272727       0.00000000       0.00000000      -1.18387127
2
Properties=species:S:1:pos:R:3:forces:R:3 energy=-16.232205862803134 pbc="F F F"
Ti       0.00000000       0.00000000       0.00000000       0.00000000       0.00000000       1.05879307
Ti       0.00000000       0.00000000       4.47151515       0.00000000       0.00000000      -1.05879307
2
Properties=species:S:1:pos:R:3:forces:R:3 energy=-16.174015748364774 pbc="F F F"
Ti       0.00000000       0.00000000       0.00000000       0.00000000       0.00000000       0.91980845
Ti       0.00000000       0.00000000       4.53030303       0.00000000       0.00000000      -0.91980845
2
Properties=species:S:1:pos:R:3:forces:R:3 energy=-16.12403730834961 pbc="F F F"
Ti       0.00000000       0.00000000       0.00000000       0.00000000       0.00000000       0.78181607
Ti       0.00000000       0.00000000       4.58909091       0.00000000       0.00000000      -0.78181607
2
Properties=species:S:1:pos:R:3:forces:R:3 energy=-16.081835641926784 pbc="F F F"
Ti       0.00000000       0.00000000       0.00000000       0.00000000       0.00000000       0.65688902
Ti       0.00000000       0.00000000       4.64787879       0.00000000       0.00000000      -0.65688902
2
Properties=species:S:1:pos:R:3:forces:R:3 energy=-16.046401844032918 pbc="F F F"
Ti       0.00000000       0.00000000       0.00000000       0.00000000       0.00000000       0.55226821
Ti       0.00000000       0.00000000       4.70666667       0.00000000       0.00000000      -0.55226821
2
Properties=species:S:1:pos:R:3:forces:R:3 energy=-16.016466770557848 pbc="F F F"
Ti       0.00000000       0.00000000       0.00000000       0.00000000       0.00000000       0.46969259
Ti       0.00000000       0.00000000       4.76545455       0.00000000       0.00000000      -0.46969259
2
Properties=species:S:1:pos:R:3:forces:R:3 energy=-15.990800488912154 pbc="F F F"
Ti       0.00000000       0.00000000       0.00000000       0.00000000       0.00000000       0.40617439
Ti       0.00000000       0.00000000       4.82424242       0.00000000       0.00000000      -0.40617439
2
Properties=species:S:1:pos:R:3:forces:R:3 energy=-15.968448839942795 pbc="F F F"
Ti       0.00000000       0.00000000       0.00000000       0.00000000       0.00000000       0.35602641
Ti       0.00000000       0.00000000       4.88303030       0.00000000       0.00000000      -0.35602641
2
Properties=species:S:1:pos:R:3:forces:R:3 energy=-15.94879725333283 pbc="F F F"
Ti       0.00000000       0.00000000       0.00000000       0.00000000       0.00000000       0.31331792
Ti       0.00000000       0.00000000       4.94181818       0.00000000       0.00000000      -0.31331792
2
Properties=species:S:1:pos:R:3:forces:R:3 energy=-15.931544119164386 pbc="F F F"
Ti       0.00000000       0.00000000       0.00000000       0.00000000       0.00000000       0.27406389
Ti       0.00000000       0.00000000       5.00060606       0.00000000       0.00000000      -0.27406389
2
Properties=species:S:1:pos:R:3:forces:R:3 energy=-15.916527197018317 pbc="F F F"
Ti       0.00000000       0.00000000       0.00000000       0.00000000       0.00000000       0.23723602
Ti       0.00000000       0.00000000       5.05939394       0.00000000       0.00000000      -0.23723602
2
Properties=species:S:1:pos:R:3:forces:R:3 energy=-15.903572919593097 pbc="F F F"
Ti       0.00000000       0.00000000       0.00000000       0.00000000       0.00000000       0.20442283
Ti       0.00000000       0.00000000       5.11818182       0.00000000       0.00000000      -0.20442283
2
Properties=species:S:1:pos:R:3:forces:R:3 energy=-15.892362887803994 pbc="F F F"
Ti       0.00000000       0.00000000       0.00000000       0.00000000       0.00000000       0.17822407
Ti       0.00000000       0.00000000       5.17696970       0.00000000       0.00000000      -0.17822407
2
Properties=species:S:1:pos:R:3:forces:R:3 energy=-15.882456743127552 pbc="F F F"
Ti       0.00000000       0.00000000       0.00000000       0.00000000       0.00000000       0.16018063
Ti       0.00000000       0.00000000       5.23575758       0.00000000       0.00000000      -0.16018063
2
Properties=species:S:1:pos:R:3:forces:R:3 energy=-15.873390383384887 pbc="F F F"
Ti       0.00000000       0.00000000       0.00000000       0.00000000       0.00000000       0.14917395
Ti       0.00000000       0.00000000       5.29454545       0.00000000       0.00000000      -0.14917395
2
Properties=species:S:1:pos:R:3:forces:R:3 energy=-15.864851435648095 pbc="F F F"
Ti       0.00000000       0.00000000       0.00000000       0.00000000       0.00000000       0.14152884
Ti       0.00000000       0.00000000       5.35333333       0.00000000       0.00000000      -0.14152884
2
Properties=species:S:1:pos:R:3:forces:R:3 energy=-15.856745058184158 pbc="F F F"
Ti       0.00000000       0.00000000       0.00000000       0.00000000       0.00000000       0.13440266
Ti       0.00000000       0.00000000       5.41212121       0.00000000       0.00000000      -0.13440266
2
Properties=species:S:1:pos:R:3:forces:R:3 energy=-15.848982169319829 pbc="F F F"
Ti       0.00000000       0.00000000       0.00000000       0.00000000       0.00000000       0.13072689
Ti       0.00000000       0.00000000       5.47090909       0.00000000       0.00000000      -0.13072689
2
Properties=species:S:1:pos:R:3:forces:R:3 energy=-15.841249627770477 pbc="F F F"
Ti       0.00000000       0.00000000       0.00000000       0.00000000       0.00000000       0.13275553
Ti       0.00000000       0.00000000       5.52969697       0.00000000       0.00000000      -0.13275553
2
Properties=species:S:1:pos:R:3:forces:R:3 energy=-15.833443180188901 pbc="F F F"
Ti       0.00000000       0.00000000       0.00000000       0.00000000       0.00000000       0.13138488
Ti       0.00000000       0.00000000       5.58848485       0.00000000       0.00000000      -0.13138488
2
Properties=species:S:1:pos:R:3:forces:R:3 energy=-15.8259974039684 pbc="F F F"
Ti       0.00000000       0.00000000       0.00000000       0.00000000       0.00000000       0.12076397
Ti       0.00000000       0.00000000       5.64727273       0.00000000       0.00000000      -0.12076397
2
Properties=species:S:1:pos:R:3:forces:R:3 energy=-15.819313482062087 pbc="F F F"
Ti       0.00000000       0.00000000       0.00000000       0.00000000       0.00000000       0.10666364
Ti       0.00000000       0.00000000       5.70606061       0.00000000       0.00000000      -0.10666364
2
Properties=species:S:1:pos:R:3:forces:R:3 energy=-15.813435910557455 pbc="F F F"
Ti       0.00000000       0.00000000       0.00000000       0.00000000       0.00000000       0.09234317
Ti       0.00000000       0.00000000       5.76484848       0.00000000       0.00000000      -0.09234317
2
Properties=species:S:1:pos:R:3:forces:R:3 energy=-15.808631342556472 pbc="F F F"
Ti       0.00000000       0.00000000       0.00000000       0.00000000       0.00000000       0.06929778
Ti       0.00000000       0.00000000       5.82363636       0.00000000       0.00000000      -0.06929778
2
Properties=species:S:1:pos:R:3:forces:R:3 energy=-15.805431487680714 pbc="F F F"
Ti       0.00000000       0.00000000       0.00000000       0.00000000       0.00000000       0.04009441
Ti       0.00000000       0.00000000       5.88242424       0.00000000       0.00000000      -0.04009441
2
Properties=species:S:1:pos:R:3:forces:R:3 energy=-15.80377766937737 pbc="F F F"
Ti       0.00000000       0.00000000       0.00000000       0.00000000       0.00000000       0.01792935
Ti       0.00000000       0.00000000       5.94121212       0.00000000       0.00000000      -0.01792935
2
Properties=species:S:1:pos:R:3:forces:R:3 energy=-15.803041778827716 pbc="F F F"
Ti       0.00000000       0.00000000       0.00000000       0.00000000       0.00000000       0.00980553
Ti       0.00000000       0.00000000       6.00000000       0.00000000       0.00000000      -0.00980553
