2
Properties=species:S:1:pos:R:3:forces:R:3 energy=1203601.4882941663 pbc="F F F"
Ti       0.00000000       0.00000000       0.00000000       0.00000000       0.00000000 -348763.09375000
Ti       0.00000000       0.00000000       0.18000000       0.00000000       0.00000000  348763.09375000
2
Properties=species:S:1:pos:R:3:forces:R:3 energy=1170438.1132941663 pbc="F F F"
Ti       0.00000000       0.00000000       0.00000000       0.00000000       0.00000000 -842213.31250000
Ti       0.00000000       0.00000000       0.23878788       0.00000000       0.00000000  842213.31250000
2
Properties=species:S:1:pos:R:3:forces:R:3 energy=1096964.9882941663 pbc="F F F"
Ti       0.00000000       0.00000000       0.00000000       0.00000000       0.00000000 -1721070.25000000
Ti       0.00000000       0.00000000       0.29757576       0.00000000       0.00000000 1721070.25000000
2
Properties=species:S:1:pos:R:3:forces:R:3 energy=961911.675794167 pbc="F F F"
Ti       0.00000000       0.00000000       0.00000000       0.00000000       0.00000000 -2904221.00000000
Ti       0.00000000       0.00000000       0.35636364       0.00000000       0.00000000 2904221.00000000
2
Properties=species:S:1:pos:R:3:forces:R:3 energy=756336.1757941678 pbc="F F F"
Ti       0.00000000       0.00000000       0.00000000       0.00000000       0.00000000 -4033585.25000000
Ti       0.00000000       0.00000000       0.41515152       0.00000000       0.00000000 4033585.25000000
2
Properties=species:S:1:pos:R:3:forces:R:3 energy=501756.30079416855 pbc="F F F"
Ti       0.00000000       0.00000000       0.00000000       0.00000000       0.00000000 -4254544.50000000
Ti       0.00000000       0.00000000       0.47393939       0.00000000       0.00000000 4254544.50000000
2
Properties=species:S:1:pos:R:3:forces:R:3 energy=264494.7695441701 pbc="F F F"
Ti       0.00000000       0.00000000       0.00000000       0.00000000       0.00000000 -3620292.00000000
Ti       0.00000000       0.00000000       0.53272727       0.00000000       0.00000000 3620292.00000000
2
Properties=species:S:1:pos:R:3:forces:R:3 energy=92754.23829417332 pbc="F F F"
Ti       0.00000000       0.00000000       0.00000000       0.00000000       0.00000000 -2095920.12500000
Ti       0.00000000       0.00000000       0.59151515       0.00000000       0.00000000 2095920.12500000
2
Properties=species:S:1:pos:R:3:forces:R:3 energy=23147.86134105386 pbc="F F F"
Ti       0.00000000       0.00000000       0.00000000       0.00000000       0.00000000 -547933.37500000
Ti       0.00000000       0.00000000       0.65030303       0.00000000       0.00000000  547933.37500000
2
Properties=species:S:1:pos:R:3:forces:R:3 energy=3969.8791633281962 pbc="F F F"
Ti       0.00000000       0.00000000       0.00000000       0.00000000       0.00000000 -151343.93750000
Ti       0.00000000       0.00000000       0.70909091       0.00000000       0.00000000  151343.93750000
2
Properties=species:S:1:pos:R:3:forces:R:3 energy=337.1122871201643 pbc="F F F"
Ti       0.00000000       0.00000000       0.00000000       0.00000000       0.00000000  -15490.18847656
Ti       0.00000000       0.00000000       0.76787879       0.00000000       0.00000000   15490.18847656
2
Properties=species:S:1:pos:R:3:forces:R:3 energy=-26.604444887559143 pbc="F F F"
Ti       0.00000000       0.00000000       0.00000000       0.00000000       0.00000000     659.95892334
Ti       0.00000000       0.00000000       0.82666667       0.00000000       0.00000000    -659.95892334
2
Properties=species:S:1:pos:R:3:forces:R:3 energy=-26.35662686588468 pbc="F F F"
Ti       0.00000000       0.00000000       0.00000000       0.00000000       0.00000000    -102.92662048
Ti       0.00000000       0.00000000       0.88545455       0.00000000       0.00000000     102.92662048
2
Properties=species:S:1:pos:R:3:forces:R:3 energy=-29.318838438341448 pbc="F F F"
Ti       0.00000000       0.00000000       0.00000000       0.00000000       0.00000000      28.80553246
Ti       0.00000000       0.00000000       0.94424242       0.00000000       0.00000000     -28.80553246
2
Properties=species:S:1:pos:R:3:forces:R:3 energy=-26.4541800319434 pbc="F F F"
Ti       0.00000000       0.00000000       0.00000000       0.00000000       0.00000000      52.75240326
Ti       0.00000000       0.00000000       1.00303030       0.00000000       0.00000000     -52.75240326
2
Properties=species:S:1:pos:R:3:forces:R:3 energy=-23.546041688688742 pbc="F F F"
Ti       0.00000000       0.00000000       0.00000000       0.00000000       0.00000000      45.80151367
Ti       0.00000000       0.00000000       1.06181818       0.00000000       0.00000000     -45.80151367
2
Properties=species:S:1:pos:R:3:forces:R:3 energy=-21.088377108659717 pbc="F F F"
Ti       0.00000000       0.00000000       0.00000000       0.00000000       0.00000000      37.86970901
Ti       0.00000000       0.00000000       1.12060606       0.00000000       0.00000000     -37.86970901
2
Properties=species:S:1:pos:R:3:forces:R:3 energy=-19.077974310423027 pbc="F F F"
Ti       0.00000000       0.00000000       0.00000000       0.00000000       0.00000000      30.48097610
Ti       0.00000000       0.00000000       1.17939394       0.00000000       0.00000000     -30.48097610
2
Properties=species:S:1:pos:R:3:forces:R:3 energy=-17.50407393400533 pbc="F F F"
Ti       0.00000000       0.00000000       0.00000000       0.00000000       0.00000000      23.09071541
Ti       0.00000000       0.00000000       1.23818182       0.00000000       0.00000000     -23.09071541
2
Properties=species:S:1:pos:R:3:forces:R:3 energy=-16.404367090987908 pbc="F F F"
Ti       0.00000000       0.00000000       0.00000000       0.00000000       0.00000000      14.09073639
Ti       0.00000000       0.00000000       1.29696970       0.00000000       0.00000000     -14.09073639
2
Properties=species:S:1:pos:R:3:forces:R:3 energy=-15.849323625753627 pbc="F F F"
Ti       0.00000000       0.00000000       0.00000000       0.00000000       0.00000000       4.75679970
Ti       0.00000000       0.00000000       1.35575758       0.00000000       0.00000000      -4.75679970
2
Properties=species:S:1:pos:R:3:forces:R:3 energy=-15.811393785938636 pbc="F F F"
Ti       0.00000000       0.00000000       0.00000000       0.00000000       0.00000000      -2.98562241
Ti       0.00000000       0.00000000       1.41454545       0.00000000       0.00000000       2.98562241
2
Properties=species:S:1:pos:R:3:forces:R:3 energy=-16.177578595677346 pbc="F F F"
Ti       0.00000000       0.00000000       0.00000000       0.00000000       0.00000000      -9.25031757
Ti       0.00000000       0.00000000       1.47333333       0.00000000       0.00000000       9.25031757
2
Properties=species:S:1:pos:R:3:forces:R:3 energy=-16.80180184228176 pbc="F F F"
Ti       0.00000000       0.00000000       0.00000000       0.00000000       0.00000000     -10.89626217
Ti       0.00000000       0.00000000       1.53212121       0.00000000       0.00000000      10.89626217
2
Properties=species:S:1:pos:R:3:forces:R:3 energy=-17.379500940456253 pbc="F F F"
Ti       0.00000000       0.00000000       0.00000000       0.00000000       0.00000000      -8.53897381
Ti       0.00000000       0.00000000       1.59090909       0.00000000       0.00000000       8.53897381
2
Properties=species:S:1:pos:R:3:forces:R:3 energy=-17.801493520533416 pbc="F F F"
Ti       0.00000000       0.00000000       0.00000000       0.00000000       0.00000000      -5.82069254
Ti       0.00000000       0.00000000       1.64969697       0.00000000       0.00000000       5.82069254
2
Properties=species:S:1:pos:R:3:forces:R:3 energy=-18.065103563669894 pbc="F F F"
Ti       0.00000000       0.00000000       0.00000000       0.00000000       0.00000000      -3.20146298
Ti       0.00000000       0.00000000       1.70848485       0.00000000       0.00000000       3.20146298
2
Properties=species:S:1:pos:R:3:forces:R:3 energy=-18.19225031005855 pbc="F F F"
Ti       0.00000000       0.00000000       0.00000000       0.00000000       0.00000000      -1.29542053
Ti       0.00000000       0.00000000       1.76727273       0.00000000       0.00000000       1.29542053
2
Properties=species:S:1:pos:R:3:forces:R:3 energy=-18.23705670430296 pbc="F F F"
Ti       0.00000000       0.00000000       0.00000000       0.00000000       0.00000000      -0.36087164
Ti       0.00000000       0.00000000       1.82606061       0.00000000       0.00000000       0.36087164
2
Properties=species:S:1:pos:R:3:forces:R:3 energy=-18.244299728639344 pbc="F F F"
Ti       0.00000000       0.00000000       0.00000000       0.00000000       0.00000000       0.07460432
Ti       0.00000000       0.00000000       1.88484848       0.00000000       0.00000000      -0.07460432
2
Properties=species:S:1:pos:R:3:forces:R:3 energy=-18.23040942278296 pbc="F F F"
Ti       0.00000000       0.00000000       0.00000000       0.00000000       0.00000000       0.39110166
Ti       0.00000000       0.00000000       1.94363636       0.00000000       0.00000000      -0.39110166
2
Properties=species:S:1:pos:R:3:forces:R:3 energy=-18.19876593242097 pbc="F F F"
Ti       0.00000000       0.00000000       0.00000000       0.00000000       0.00000000       0.68257099
Ti       0.00000000       0.00000000       2.00242424       0.00000000       0.00000000      -0.68257099
2
Properties=species:S:1:pos:R:3:forces:R:3 energy=-18.150560041818633 pbc="F F F"
Ti       0.00000000       0.00000000       0.00000000       0.00000000       0.00000000       0.95291847
Ti       0.00000000       0.00000000       2.06121212       0.00000000       0.00000000      -0.95291847
2
Properties=species:S:1:pos:R:3:forces:R:3 energy=-18.087520913615254 pbc="F F F"
Ti       0.00000000       0.00000000       0.00000000       0.00000000       0.00000000       1.18129206
Ti       0.00000000       0.00000000       2.12000000       0.00000000       0.00000000      -1.18129206
2
Properties=species:S:1:pos:R:3:forces:R:3 energy=-18.013585319029037 pbc="F F F"
Ti       0.00000000       0.00000000       0.00000000       0.00000000       0.00000000       1.31090307
Ti       0.00000000       0.00000000       2.17878788       0.00000000       0.00000000      -1.31090307
2
Properties=species:S:1:pos:R:3:forces:R:3 energy=-17.936692939181256 pbc="F F F"
Ti       0.00000000       0.00000000       0.00000000       0.00000000       0.00000000       1.27541220
Ti       0.00000000       0.00000000       2.23757576       0.00000000       0.00000000      -1.27541220
2
Properties=species:S:1:pos:R:3:forces:R:3 energy=-17.866542125347614 pbc="F F F"
Ti       0.00000000       0.00000000       0.00000000       0.00000000       0.00000000       1.09500504
Ti       0.00000000       0.00000000       2.29636364       0.00000000       0.00000000      -1.09500504
2
Properties=species:S:1:pos:R:3:forces:R:3 energy=-17.80850655446993 pbc="F F F"
Ti       0.00000000       0.00000000       0.00000000       0.00000000       0.00000000       0.88564813
Ti       0.00000000       0.00000000       2.35515152       0.00000000       0.00000000      -0.88564813
2
Properties=species:S:1:pos:R:3:forces:R:3 energy=-17.760764312764064 pbc="F F F"
Ti       0.00000000       0.00000000       0.00000000       0.00000000       0.00000000       0.75721610
Ti       0.00000000       0.00000000       2.41393939       0.00000000       0.00000000      -0.75721610
2
Properties=species:S:1:pos:R:3:forces:R:3 energy=-17.717251188595537 pbc="F F F"
Ti       0.00000000       0.00000000       0.00000000       0.00000000       0.00000000       0.73998559
Ti       0.00000000       0.00000000       2.47272727       0.00000000       0.00000000      -0.73998559
2
Properties=species:S:1:pos:R:3:forces:R:3 energy=-17.672261412154377 pbc="F F F"
Ti       0.00000000       0.00000000       0.00000000       0.00000000       0.00000000       0.79870647
Ti       0.00000000       0.00000000       2.53151515       0.00000000       0.00000000      -0.79870647
2
Properties=species:S:1:pos:R:3:forces:R:3 energy=-17.622926480383793 pbc="F F F"
Ti       0.00000000       0.00000000       0.00000000       0.00000000       0.00000000       0.87878996
Ti       0.00000000       0.00000000       2.59030303       0.00000000       0.00000000      -0.87878996
2
Properties=species:S:1:pos:R:3:forces:R:3 energy=-17.569566280648676 pbc="F F F"
Ti       0.00000000       0.00000000       0.00000000       0.00000000       0.00000000       0.92686260
Ti       0.00000000       0.00000000       2.64909091       0.00000000       0.00000000      -0.92686260
2
Properties=species:S:1:pos:R:3:forces:R:3 energy=-17.51552218598157 pbc="F F F"
Ti       0.00000000       0.00000000       0.00000000       0.00000000       0.00000000       0.89561069
Ti       0.00000000       0.00000000       2.70787879       0.00000000       0.00000000      -0.89561069
2
Properties=species:S:1:pos:R:3:forces:R:3 energy=-17.466211622785508 pbc="F F F"
Ti       0.00000000       0.00000000       0.00000000       0.00000000       0.00000000       0.76679969
Ti       0.00000000       0.00000000       2.76666667       0.00000000       0.00000000      -0.76679969
2
Properties=species:S:1:pos:R:3:forces:R:3 energy=-17.426709041011776 pbc="F F F"
Ti       0.00000000       0.00000000       0.00000000       0.00000000       0.00000000       0.57037127
Ti       0.00000000       0.00000000       2.82545455       0.00000000       0.00000000      -0.57037127
2
Properties=species:S:1:pos:R:3:forces:R:3 energy=-17.399335096009153 pbc="F F F"
Ti       0.00000000       0.00000000       0.00000000       0.00000000       0.00000000       0.36439484
Ti       0.00000000       0.00000000       2.88424242       0.00000000       0.00000000      -0.36439484
2
Properties=species:S:1:pos:R:3:forces:R:3 energy=-17.382906585739686 pbc="F F F"
Ti       0.00000000       0.00000000       0.00000000       0.00000000       0.00000000       0.20694791
Ti       0.00000000       0.00000000       2.94303030       0.00000000       0.00000000      -0.20694791
2
Properties=species:S:1:pos:R:3:forces:R:3 energy=-17.373199215600547 pbc="F F F"
Ti       0.00000000       0.00000000       0.00000000       0.00000000       0.00000000       0.14021417
Ti       0.00000000       0.00000000       3.00181818       0.00000000       0.00000000      -0.14021417
2
Properties=species:S:1:pos:R:3:forces:R:3 energy=-17.36451194581863 pbc="F F F"
Ti       0.00000000       0.00000000       0.00000000       0.00000000       0.00000000       0.16964364
Ti       0.00000000       0.00000000       3.06060606       0.00000000       0.00000000      -0.16964364
2
Properties=species:S:1:pos:R:3:forces:R:3 energy=-17.351892242163363 pbc="F F F"
Ti       0.00000000       0.00000000       0.00000000       0.00000000       0.00000000       0.26842195
Ti       0.00000000       0.00000000       3.11939394       0.00000000       0.00000000      -0.26842195
2
Properties=species:S:1:pos:R:3:forces:R:3 energy=-17.33223153809015 pbc="F F F"
Ti       0.00000000       0.00000000       0.00000000       0.00000000       0.00000000       0.40420750
Ti       0.00000000       0.00000000       3.17818182       0.00000000       0.00000000      -0.40420750
2
Properties=species:S:1:pos:R:3:forces:R:3 energy=-17.3041795222533 pbc="F F F"
Ti       0.00000000       0.00000000       0.00000000       0.00000000       0.00000000       0.54971099
Ti       0.00000000       0.00000000       3.23696970       0.00000000       0.00000000      -0.54971099
2
Properties=species:S:1:pos:R:3:forces:R:3 energy=-17.267896809134957 pbc="F F F"
Ti       0.00000000       0.00000000       0.00000000       0.00000000       0.00000000       0.68008655
Ti       0.00000000       0.00000000       3.29575758       0.00000000       0.00000000      -0.68008655
2
Properties=species:S:1:pos:R:3:forces:R:3 energy=-17.224984674947134 pbc="F F F"
Ti       0.00000000       0.00000000       0.00000000       0.00000000       0.00000000       0.77152067
Ti       0.00000000       0.00000000       3.35454545       0.00000000       0.00000000      -0.77152067
2
Properties=species:S:1:pos:R:3:forces:R:3 energy=-17.1782945149298 pbc="F F F"
Ti       0.00000000       0.00000000       0.00000000       0.00000000       0.00000000       0.80673671
Ti       0.00000000       0.00000000       3.41333333       0.00000000       0.00000000      -0.80673671
2
Properties=species:S:1:pos:R:3:forces:R:3 energy=-17.131298376742286 pbc="F F F"
Ti       0.00000000       0.00000000       0.00000000       0.00000000       0.00000000       0.78297496
Ti       0.00000000       0.00000000       3.47212121       0.00000000       0.00000000      -0.78297496
2
Properties=species:S:1:pos:R:3:forces:R:3 energy=-17.087127280391762 pbc="F F F"
Ti       0.00000000       0.00000000       0.00000000       0.00000000       0.00000000       0.71412355
Ti       0.00000000       0.00000000       3.53090909       0.00000000       0.00000000      -0.71412355
2
Properties=species:S:1:pos:R:3:forces:R:3 energy=-17.047738789636455 pbc="F F F"
Ti       0.00000000       0.00000000       0.00000000       0.00000000       0.00000000       0.62474006
Ti       0.00000000       0.00000000       3.58969697       0.00000000       0.00000000      -0.62474006
2
Properties=species:S:1:pos:R:3:forces:R:3 energy=-17.013550414254155 pbc="F F F"
Ti       0.00000000       0.00000000       0.00000000       0.00000000       0.00000000       0.54143214
Ti       0.00000000       0.00000000       3.64848485       0.00000000       0.00000000      -0.54143214
2
Properties=species:S:1:pos:R:3:forces:R:3 energy=-16.98350505544629 pbc="F F F"
Ti       0.00000000       0.00000000       0.00000000       0.00000000       0.00000000       0.48720002
Ti       0.00000000       0.00000000       3.70727273       0.00000000       0.00000000      -0.48720002
2
Properties=species:S:1:pos:R:3:forces:R:3 energy=-16.95536478821255 pbc="F F F"
Ti       0.00000000       0.00000000       0.00000000       0.00000000       0.00000000       0.47878903
Ti       0.00000000       0.00000000       3.76606061       0.00000000       0.00000000      -0.47878903
2
Properties=species:S:1:pos:R:3:forces:R:3 energy=-16.92614402589548 pbc="F F F"
Ti       0.00000000       0.00000000       0.00000000       0.00000000       0.00000000       0.52445585
Ti       0.00000000       0.00000000       3.82484848       0.00000000       0.00000000      -0.52445585
2
Properties=species:S:1:pos:R:3:forces:R:3 energy=-16.892679735058334 pbc="F F F"
Ti       0.00000000       0.00000000       0.00000000       0.00000000       0.00000000       0.62192130
Ti       0.00000000       0.00000000       3.88363636       0.00000000       0.00000000      -0.62192130
2
Properties=species:S:1:pos:R:3:forces:R:3 energy=-16.852251418825407 pbc="F F F"
Ti       0.00000000       0.00000000       0.00000000       0.00000000       0.00000000       0.75853020
Ti       0.00000000       0.00000000       3.94242424       0.00000000       0.00000000      -0.75853020
2
Properties=species:S:1:pos:R:3:forces:R:3 energy=-16.80311319745849 pbc="F F F"
Ti       0.00000000       0.00000000       0.00000000       0.00000000       0.00000000       0.91459322
Ti       0.00000000       0.00000000       4.00121212       0.00000000       0.00000000      -0.91459322
2
Properties=species:S:1:pos:R:3:forces:R:3 energy=-16.744764746897403 pbc="F F F"
Ti       0.00000000       0.00000000       0.00000000       0.00000000       0.00000000       1.06828249
Ti       0.00000000       0.00000000       4.06000000       0.00000000       0.00000000      -1.06828249
2
Properties=species:S:1:pos:R:3:forces:R:3 energy=-16.677945503854176 pbc="F F F"
Ti       0.00000000       0.00000000       0.00000000       0.00000000       0.00000000       1.19976997
Ti       0.00000000       0.00000000       4.11878788       0.00000000       0.00000000      -1.19976997
2
Properties=species:S:1:pos:R:3:forces:R:3 energy=-16.6044421313071 pbc="F F F"
Ti       0.00000000       0.00000000       0.00000000       0.00000000       0.00000000       1.29363215
Ti       0.00000000       0.00000000       4.17757576       0.00000000       0.00000000      -1.29363215
2
Properties=species:S:1:pos:R:3:forces:R:3 energy=-16.526781254804977 pbc="F F F"
Ti       0.00000000       0.00000000       0.00000000       0.00000000       0.00000000       1.33991838
Ti       0.00000000       0.00000000       4.23636364       0.00000000       0.00000000      -1.33991838
2
Properties=species:S:1:pos:R:3:forces:R:3 energy=-16.44791120767815 pbc="F F F"
Ti       0.00000000       0.00000000       0.00000000       0.00000000       0.00000000       1.33465219
Ti       0.00000000       0.00000000       4.29515152       0.00000000       0.00000000      -1.33465219
2
Properties=species:S:1:pos:R:3:forces:R:3 energy=-16.370831802663105 pbc="F F F"
Ti       0.00000000       0.00000000       0.00000000       0.00000000       0.00000000       1.27999818
Ti       0.00000000       0.00000000       4.35393939       0.00000000       0.00000000      -1.27999818
2
Properties=species:S:1:pos:R:3:forces:R:3 energy=-16.298232027529096 pbc="F F F"
Ti       0.00000000       0.00000000       0.00000000       0.00000000       0.00000000       1.18386972
Ti       0.00000000       0.00000000       4.41272727       0.00000000       0.00000000      -1.18386972
2
Properties=species:S:1:pos:R:3:forces:R:3 energy=-16.232205862803134 pbc="F F F"
Ti       0.00000000       0.00000000       0.00000000       0.00000000       0.00000000       1.05879128
Ti       0.00000000       0.00000000       4.47151515       0.00000000       0.00000000      -1.05879128
2
Properties=species:S:1:pos:R:3:forces:R:3 energy=-16.174015748364774 pbc="F F F"
Ti       0.00000000       0.00000000       0.00000000       0.00000000       0.00000000       0.91980726
Ti       0.00000000       0.00000000       4.53030303       0.00000000       0.00000000      -0.91980726
2
Properties=species:S:1:pos:R:3:forces:R:3 energy=-16.124037314685253 pbc="F F F"
Ti       0.00000000       0.00000000       0.00000000       0.00000000       0.00000000       0.78181356
Ti       0.00000000       0.00000000       4.58909091       0.00000000       0.00000000      -0.78181356
2
Properties=species:S:1:pos:R:3:forces:R:3 energy=-16.081835641926784 pbc="F F F"
Ti       0.00000000       0.00000000       0.00000000       0.00000000       0.00000000       0.65689051
Ti       0.00000000       0.00000000       4.64787879       0.00000000       0.00000000      -0.65689051
2
Properties=species:S:1:pos:R:3:forces:R:3 energy=-16.046401844032918 pbc="F F F"
Ti       0.00000000       0.00000000       0.00000000       0.00000000       0.00000000       0.55226690
Ti       0.00000000       0.00000000       4.70666667       0.00000000       0.00000000      -0.55226690
2
Properties=species:S:1:pos:R:3:forces:R:3 energy=-16.016466770557848 pbc="F F F"
Ti       0.00000000       0.00000000       0.00000000       0.00000000       0.00000000       0.46969360
Ti       0.00000000       0.00000000       4.76545455       0.00000000       0.00000000      -0.46969360
2
Properties=species:S:1:pos:R:3:forces:R:3 energy=-15.99080144258647 pbc="F F F"
Ti       0.00000000       0.00000000       0.00000000       0.00000000       0.00000000       0.40617588
Ti       0.00000000       0.00000000       4.82424242       0.00000000       0.00000000      -0.40617588
2
Properties=species:S:1:pos:R:3:forces:R:3 energy=-15.968448839942795 pbc="F F F"
Ti       0.00000000       0.00000000       0.00000000       0.00000000       0.00000000       0.35602865
Ti       0.00000000       0.00000000       4.88303030       0.00000000       0.00000000      -0.35602865
2
Properties=species:S:1:pos:R:3:forces:R:3 energy=-15.94879725333283 pbc="F F F"
Ti       0.00000000       0.00000000       0.00000000       0.00000000       0.00000000       0.31331971
Ti       0.00000000       0.00000000       4.94181818       0.00000000       0.00000000      -0.31331971
2
Properties=species:S:1:pos:R:3:forces:R:3 energy=-15.93154316549007 pbc="F F F"
Ti       0.00000000       0.00000000       0.00000000       0.00000000       0.00000000       0.27406150
Ti       0.00000000       0.00000000       5.00060606       0.00000000       0.00000000      -0.27406150
2
Properties=species:S:1:pos:R:3:forces:R:3 energy=-15.916527197018317 pbc="F F F"
Ti       0.00000000       0.00000000       0.00000000       0.00000000       0.00000000       0.23723514
Ti       0.00000000       0.00000000       5.05939394       0.00000000       0.00000000      -0.23723514
2
Properties=species:S:1:pos:R:3:forces:R:3 energy=-15.90357196591878 pbc="F F F"
Ti       0.00000000       0.00000000       0.00000000       0.00000000       0.00000000       0.20442073
Ti       0.00000000       0.00000000       5.11818182       0.00000000       0.00000000      -0.20442073
2
Properties=species:S:1:pos:R:3:forces:R:3 energy=-15.892362889387906 pbc="F F F"
Ti       0.00000000       0.00000000       0.00000000       0.00000000       0.00000000       0.17822360
Ti       0.00000000       0.00000000       5.17696970       0.00000000       0.00000000      -0.17822360
2
Properties=species:S:1:pos:R:3:forces:R:3 energy=-15.882456743127552 pbc="F F F"
Ti       0.00000000       0.00000000       0.00000000       0.00000000       0.00000000       0.16018111
Ti       0.00000000       0.00000000       5.23575758       0.00000000       0.00000000      -0.16018111
2
Properties=species:S:1:pos:R:3:forces:R:3 energy=-15.873390383384887 pbc="F F F"
Ti       0.00000000       0.00000000       0.00000000       0.00000000       0.00000000       0.14917390
Ti       0.00000000       0.00000000       5.29454545       0.00000000       0.00000000      -0.14917390
2
Properties=species:S:1:pos:R:3:forces:R:3 energy=-15.864851438815917 pbc="F F F"
Ti       0.00000000       0.00000000       0.00000000       0.00000000       0.00000000       0.14152600
Ti       0.00000000       0.00000000       5.35333333       0.00000000       0.00000000      -0.14152600
2
Properties=species:S:1:pos:R:3:forces:R:3 energy=-15.856743150835525 pbc="F F F"
Ti       0.00000000       0.00000000       0.00000000       0.00000000       0.00000000       0.13440289
Ti       0.00000000       0.00000000       5.41212121       0.00000000       0.00000000      -0.13440289
2
Properties=species:S:1:pos:R:3:forces:R:3 energy=-15.848982169319829 pbc="F F F"
Ti       0.00000000       0.00000000       0.00000000       0.00000000       0.00000000       0.13073045
Ti       0.00000000       0.00000000       5.47090909       0.00000000       0.00000000      -0.13073045
2
Properties=species:S:1:pos:R:3:forces:R:3 energy=-15.84124963252221 pbc="F F F"
Ti       0.00000000       0.00000000       0.00000000       0.00000000       0.00000000       0.13275684
Ti       0.00000000       0.00000000       5.52969697       0.00000000       0.00000000      -0.13275684
2
Properties=species:S:1:pos:R:3:forces:R:3 energy=-15.833443180188901 pbc="F F F"
Ti       0.00000000       0.00000000       0.00000000       0.00000000       0.00000000       0.13138655
Ti       0.00000000       0.00000000       5.58848485       0.00000000       0.00000000      -0.13138655
2
Properties=species:S:1:pos:R:3:forces:R:3 energy=-15.825993589271134 pbc="F F F"
Ti       0.00000000       0.00000000       0.00000000       0.00000000       0.00000000       0.12076498
Ti       0.00000000       0.00000000       5.64727273       0.00000000       0.00000000      -0.12076498
2
Properties=species:S:1:pos:R:3:forces:R:3 energy=-15.819313488397732 pbc="F F F"
Ti       0.00000000       0.00000000       0.00000000       0.00000000       0.00000000       0.10665834
Ti       0.00000000       0.00000000       5.70606061       0.00000000       0.00000000      -0.10665834
2
Properties=species:S:1:pos:R:3:forces:R:3 energy=-15.813435910557455 pbc="F F F"
Ti       0.00000000       0.00000000       0.00000000       0.00000000       0.00000000       0.09234214
Ti       0.00000000       0.00000000       5.76484848       0.00000000       0.00000000      -0.09234214
2
Properties=species:S:1:pos:R:3:forces:R:3 energy=-15.808636110928054 pbc="F F F"
Ti       0.00000000       0.00000000       0.00000000       0.00000000       0.00000000       0.06927233
Ti       0.00000000       0.00000000       5.82363636       0.00000000       0.00000000      -0.06927233
2
Properties=species:S:1:pos:R:3:forces:R:3 energy=-15.805431490848536 pbc="F F F"
Ti       0.00000000       0.00000000       0.00000000       0.00000000       0.00000000       0.04009362
Ti       0.00000000       0.00000000       5.88242424       0.00000000       0.00000000      -0.04009362
2
Properties=species:S:1:pos:R:3:forces:R:3 energy=-15.80377766937737 pbc="F F F"
Ti       0.00000000       0.00000000       0.00000000       0.00000000       0.00000000       0.01791081
Ti       0.00000000       0.00000000       5.94121212       0.00000000       0.00000000      -0.01791081
2
Properties=species:S:1:pos:R:3:forces:R:3 energy=-15.803041778827716 pbc="F F F"
Ti       0.00000000       0.00000000       0.00000000       0.00000000       0.00000000       0.00980553
Ti       0.00000000       0.00000000       6.00000000       0.00000000       0.00000000      -0.00980553
