2
Properties=species:S:1:pos:R:3:forces:R:3 energy=17368.699879407413 pbc="F F F"
Tl       0.00000000       0.00000000       0.00000000       0.00000000       0.00000000 -296815.28125000
Tl       0.00000000       0.00000000       0.18000000       0.00000000       0.00000000  296815.28125000
2
Properties=species:S:1:pos:R:3:forces:R:3 energy=7018.412770032414 pbc="F F F"
Tl       0.00000000       0.00000000       0.00000000       0.00000000       0.00000000  -97909.46875000
Tl       0.00000000       0.00000000       0.23878788       0.00000000       0.00000000   97909.46875000
2
Properties=species:S:1:pos:R:3:forces:R:3 energy=3300.562428235539 pbc="F F F"
Tl       0.00000000       0.00000000       0.00000000       0.00000000       0.00000000  -39268.94140625
Tl       0.00000000       0.00000000       0.29757576       0.00000000       0.00000000   39268.94140625
2
Properties=species:S:1:pos:R:3:forces:R:3 energy=1681.819508313664 pbc="F F F"
Tl       0.00000000       0.00000000       0.00000000       0.00000000       0.00000000  -19182.99414062
Tl       0.00000000       0.00000000       0.35636364       0.00000000       0.00000000   19182.99414062
2
Properties=species:S:1:pos:R:3:forces:R:3 energy=806.4507338996015 pbc="F F F"
Tl       0.00000000       0.00000000       0.00000000       0.00000000       0.00000000  -11730.69824219
Tl       0.00000000       0.00000000       0.41515152       0.00000000       0.00000000   11730.69824219
2
Properties=species:S:1:pos:R:3:forces:R:3 energy=229.87694239569527 pbc="F F F"
Tl       0.00000000       0.00000000       0.00000000       0.00000000       0.00000000   -8139.08837891
Tl       0.00000000       0.00000000       0.47393939       0.00000000       0.00000000    8139.08837891
2
Properties=species:S:1:pos:R:3:forces:R:3 energy=-157.1017868507677 pbc="F F F"
Tl       0.00000000       0.00000000       0.00000000       0.00000000       0.00000000   -4978.63037109
Tl       0.00000000       0.00000000       0.53272727       0.00000000       0.00000000    4978.63037109
2
Properties=species:S:1:pos:R:3:forces:R:3 energy=-255.6251785728166 pbc="F F F"
Tl       0.00000000       0.00000000       0.00000000       0.00000000       0.00000000    1975.81787109
Tl       0.00000000       0.00000000       0.59151515       0.00000000       0.00000000   -1975.81787109
2
Properties=species:S:1:pos:R:3:forces:R:3 energy=-173.69428562689674 pbc="F F F"
Tl       0.00000000       0.00000000       0.00000000       0.00000000       0.00000000     897.29522705
Tl       0.00000000       0.00000000       0.65030303       0.00000000       0.00000000    -897.29522705
2
Properties=species:S:1:pos:R:3:forces:R:3 energy=-120.5541565335815 pbc="F F F"
Tl       0.00000000       0.00000000       0.00000000       0.00000000       0.00000000    1026.32958984
Tl       0.00000000       0.00000000       0.70909091       0.00000000       0.00000000   -1026.32958984
2
Properties=species:S:1:pos:R:3:forces:R:3 energy=-63.39867709688547 pbc="F F F"
Tl       0.00000000       0.00000000       0.00000000       0.00000000       0.00000000    -213.05708313
Tl       0.00000000       0.00000000       0.76787879       0.00000000       0.00000000     213.05708313
2
Properties=species:S:1:pos:R:3:forces:R:3 energy=-74.92786715165053 pbc="F F F"
Tl       0.00000000       0.00000000       0.00000000       0.00000000       0.00000000    -131.73416138
Tl       0.00000000       0.00000000       0.82666667       0.00000000       0.00000000     131.73416138
2
Properties=species:S:1:pos:R:3:forces:R:3 energy=-80.54266663928291 pbc="F F F"
Tl       0.00000000       0.00000000       0.00000000       0.00000000       0.00000000     -70.77426910
Tl       0.00000000       0.00000000       0.88545455       0.00000000       0.00000000      70.77426910
2
Properties=species:S:1:pos:R:3:forces:R:3 energy=-83.45235747958544 pbc="F F F"
Tl       0.00000000       0.00000000       0.00000000       0.00000000       0.00000000     -17.84770775
Tl       0.00000000       0.00000000       0.94424242       0.00000000       0.00000000      17.84770775
2
Properties=species:S:1:pos:R:3:forces:R:3 energy=-82.77920071833748 pbc="F F F"
Tl       0.00000000       0.00000000       0.00000000       0.00000000       0.00000000      23.77562904
Tl       0.00000000       0.00000000       1.00303030       0.00000000       0.00000000     -23.77562904
2
Properties=species:S:1:pos:R:3:forces:R:3 energy=-81.81346429908301 pbc="F F F"
Tl       0.00000000       0.00000000       0.00000000       0.00000000       0.00000000       7.97410965
Tl       0.00000000       0.00000000       1.06181818       0.00000000       0.00000000      -7.97410965
2
Properties=species:S:1:pos:R:3:forces:R:3 energy=-81.96609792647742 pbc="F F F"
Tl       0.00000000       0.00000000       0.00000000       0.00000000       0.00000000     -13.78771496
Tl       0.00000000       0.00000000       1.12060606       0.00000000       0.00000000      13.78771496
2
Properties=species:S:1:pos:R:3:forces:R:3 energy=-83.1017179906039 pbc="F F F"
Tl       0.00000000       0.00000000       0.00000000       0.00000000       0.00000000     -21.38795471
Tl       0.00000000       0.00000000       1.17939394       0.00000000       0.00000000      21.38795471
2
Properties=species:S:1:pos:R:3:forces:R:3 energy=-83.93213937104159 pbc="F F F"
Tl       0.00000000       0.00000000       0.00000000       0.00000000       0.00000000      -2.86679745
Tl       0.00000000       0.00000000       1.23818182       0.00000000       0.00000000       2.86679745
2
Properties=species:S:1:pos:R:3:forces:R:3 energy=-83.66810119957289 pbc="F F F"
Tl       0.00000000       0.00000000       0.00000000       0.00000000       0.00000000       5.50766516
Tl       0.00000000       0.00000000       1.29696970       0.00000000       0.00000000      -5.50766516
2
Properties=species:S:1:pos:R:3:forces:R:3 energy=-83.84402729877912 pbc="F F F"
Tl       0.00000000       0.00000000       0.00000000       0.00000000       0.00000000     -13.43588924
Tl       0.00000000       0.00000000       1.35575758       0.00000000       0.00000000      13.43588924
2
Properties=species:S:1:pos:R:3:forces:R:3 energy=-85.19923651473262 pbc="F F F"
Tl       0.00000000       0.00000000       0.00000000       0.00000000       0.00000000     -30.42091370
Tl       0.00000000       0.00000000       1.41454545       0.00000000       0.00000000      30.42091370
2
Properties=species:S:1:pos:R:3:forces:R:3 energy=-87.11819691891905 pbc="F F F"
Tl       0.00000000       0.00000000       0.00000000       0.00000000       0.00000000     -32.89159012
Tl       0.00000000       0.00000000       1.47333333       0.00000000       0.00000000      32.89159012
2
Properties=species:S:1:pos:R:3:forces:R:3 energy=-88.93861602532601 pbc="F F F"
Tl       0.00000000       0.00000000       0.00000000       0.00000000       0.00000000     -28.63099098
Tl       0.00000000       0.00000000       1.53212121       0.00000000       0.00000000      28.63099098
2
Properties=species:S:1:pos:R:3:forces:R:3 energy=-90.48590276237275 pbc="F F F"
Tl       0.00000000       0.00000000       0.00000000       0.00000000       0.00000000     -24.31102562
Tl       0.00000000       0.00000000       1.59090909       0.00000000       0.00000000      24.31102562
2
Properties=species:S:1:pos:R:3:forces:R:3 energy=-91.84337011279683 pbc="F F F"
Tl       0.00000000       0.00000000       0.00000000       0.00000000       0.00000000     -22.24164963
Tl       0.00000000       0.00000000       1.64969697       0.00000000       0.00000000      22.24164963
2
Properties=species:S:1:pos:R:3:forces:R:3 energy=-93.13031128156933 pbc="F F F"
Tl       0.00000000       0.00000000       0.00000000       0.00000000       0.00000000     -21.65533066
Tl       0.00000000       0.00000000       1.70848485       0.00000000       0.00000000      21.65533066
2
Properties=species:S:1:pos:R:3:forces:R:3 energy=-94.39061053098685 pbc="F F F"
Tl       0.00000000       0.00000000       0.00000000       0.00000000       0.00000000     -21.15956688
Tl       0.00000000       0.00000000       1.76727273       0.00000000       0.00000000      21.15956688
2
Properties=species:S:1:pos:R:3:forces:R:3 energy=-95.60818509024989 pbc="F F F"
Tl       0.00000000       0.00000000       0.00000000       0.00000000       0.00000000     -20.17591667
Tl       0.00000000       0.00000000       1.82606061       0.00000000       0.00000000      20.17591667
2
Properties=species:S:1:pos:R:3:forces:R:3 energy=-96.75405850863335 pbc="F F F"
Tl       0.00000000       0.00000000       0.00000000       0.00000000       0.00000000     -18.74850464
Tl       0.00000000       0.00000000       1.88484848       0.00000000       0.00000000      18.74850464
2
Properties=species:S:1:pos:R:3:forces:R:3 energy=-97.80717364376775 pbc="F F F"
Tl       0.00000000       0.00000000       0.00000000       0.00000000       0.00000000     -17.04461861
Tl       0.00000000       0.00000000       1.94363636       0.00000000       0.00000000      17.04461861
2
Properties=species:S:1:pos:R:3:forces:R:3 energy=-98.75528530238327 pbc="F F F"
Tl       0.00000000       0.00000000       0.00000000       0.00000000       0.00000000     -15.19691658
Tl       0.00000000       0.00000000       2.00242424       0.00000000       0.00000000      15.19691658
2
Properties=species:S:1:pos:R:3:forces:R:3 energy=-99.59351066010059 pbc="F F F"
Tl       0.00000000       0.00000000       0.00000000       0.00000000       0.00000000     -13.32603455
Tl       0.00000000       0.00000000       2.06121212       0.00000000       0.00000000      13.32603455
2
Properties=species:S:1:pos:R:3:forces:R:3 energy=-100.32391727175028 pbc="F F F"
Tl       0.00000000       0.00000000       0.00000000       0.00000000       0.00000000     -11.54631805
Tl       0.00000000       0.00000000       2.12000000       0.00000000       0.00000000      11.54631805
2
Properties=species:S:1:pos:R:3:forces:R:3 energy=-100.95445495693043 pbc="F F F"
Tl       0.00000000       0.00000000       0.00000000       0.00000000       0.00000000      -9.93726063
Tl       0.00000000       0.00000000       2.17878788       0.00000000       0.00000000       9.93726063
2
Properties=species:S:1:pos:R:3:forces:R:3 energy=-101.4961558177574 pbc="F F F"
Tl       0.00000000       0.00000000       0.00000000       0.00000000       0.00000000      -8.52361012
Tl       0.00000000       0.00000000       2.23757576       0.00000000       0.00000000       8.52361012
2
Properties=species:S:1:pos:R:3:forces:R:3 energy=-101.9600366959745 pbc="F F F"
Tl       0.00000000       0.00000000       0.00000000       0.00000000       0.00000000      -7.28326130
Tl       0.00000000       0.00000000       2.29636364       0.00000000       0.00000000       7.28326130
2
Properties=species:S:1:pos:R:3:forces:R:3 energy=-102.3550164013061 pbc="F F F"
Tl       0.00000000       0.00000000       0.00000000       0.00000000       0.00000000      -6.17191410
Tl       0.00000000       0.00000000       2.35515152       0.00000000       0.00000000       6.17191410
2
Properties=species:S:1:pos:R:3:forces:R:3 energy=-102.68738921116697 pbc="F F F"
Tl       0.00000000       0.00000000       0.00000000       0.00000000       0.00000000      -5.14722586
Tl       0.00000000       0.00000000       2.41393939       0.00000000       0.00000000       5.14722586
2
Properties=species:S:1:pos:R:3:forces:R:3 energy=-102.96141241402873 pbc="F F F"
Tl       0.00000000       0.00000000       0.00000000       0.00000000       0.00000000      -4.18493795
Tl       0.00000000       0.00000000       2.47272727       0.00000000       0.00000000       4.18493795
2
Properties=species:S:1:pos:R:3:forces:R:3 energy=-103.18063383911534 pbc="F F F"
Tl       0.00000000       0.00000000       0.00000000       0.00000000       0.00000000      -3.28440499
Tl       0.00000000       0.00000000       2.53151515       0.00000000       0.00000000       3.28440499
2
Properties=species:S:1:pos:R:3:forces:R:3 energy=-103.3491506463123 pbc="F F F"
Tl       0.00000000       0.00000000       0.00000000       0.00000000       0.00000000      -2.46413946
Tl       0.00000000       0.00000000       2.59030303       0.00000000       0.00000000       2.46413946
2
Properties=species:S:1:pos:R:3:forces:R:3 energy=-103.47244103550047 pbc="F F F"
Tl       0.00000000       0.00000000       0.00000000       0.00000000       0.00000000      -1.74991035
Tl       0.00000000       0.00000000       2.64909091       0.00000000       0.00000000       1.74991035
2
Properties=species:S:1:pos:R:3:forces:R:3 energy=-103.55735655459718 pbc="F F F"
Tl       0.00000000       0.00000000       0.00000000       0.00000000       0.00000000      -1.16069436
Tl       0.00000000       0.00000000       2.70787879       0.00000000       0.00000000       1.16069436
2
Properties=species:S:1:pos:R:3:forces:R:3 energy=-103.61142022535361 pbc="F F F"
Tl       0.00000000       0.00000000       0.00000000       0.00000000       0.00000000      -0.69925940
Tl       0.00000000       0.00000000       2.76666667       0.00000000       0.00000000       0.69925940
2
Properties=species:S:1:pos:R:3:forces:R:3 energy=-103.64181170716928 pbc="F F F"
Tl       0.00000000       0.00000000       0.00000000       0.00000000       0.00000000      -0.35191861
Tl       0.00000000       0.00000000       2.82545455       0.00000000       0.00000000       0.35191861
2
Properties=species:S:1:pos:R:3:forces:R:3 energy=-103.65458903470139 pbc="F F F"
Tl       0.00000000       0.00000000       0.00000000       0.00000000       0.00000000      -0.09604140
Tl       0.00000000       0.00000000       2.88424242       0.00000000       0.00000000       0.09604140
2
Properties=species:S:1:pos:R:3:forces:R:3 energy=-103.65445191894098 pbc="F F F"
Tl       0.00000000       0.00000000       0.00000000       0.00000000       0.00000000       0.09098437
Tl       0.00000000       0.00000000       2.94303030       0.00000000       0.00000000      -0.09098437
2
Properties=species:S:1:pos:R:3:forces:R:3 energy=-103.64489418938368 pbc="F F F"
Tl       0.00000000       0.00000000       0.00000000       0.00000000       0.00000000       0.22671534
Tl       0.00000000       0.00000000       3.00181818       0.00000000       0.00000000      -0.22671534
2
Properties=species:S:1:pos:R:3:forces:R:3 energy=-103.62855467806999 pbc="F F F"
Tl       0.00000000       0.00000000       0.00000000       0.00000000       0.00000000       0.32366836
Tl       0.00000000       0.00000000       3.06060606       0.00000000       0.00000000      -0.32366836
2
Properties=species:S:1:pos:R:3:forces:R:3 energy=-103.60740812075923 pbc="F F F"
Tl       0.00000000       0.00000000       0.00000000       0.00000000       0.00000000       0.39183781
Tl       0.00000000       0.00000000       3.11939394       0.00000000       0.00000000      -0.39183781
2
Properties=species:S:1:pos:R:3:forces:R:3 energy=-103.58285727274428 pbc="F F F"
Tl       0.00000000       0.00000000       0.00000000       0.00000000       0.00000000       0.44079134
Tl       0.00000000       0.00000000       3.17818182       0.00000000       0.00000000      -0.44079134
2
Properties=species:S:1:pos:R:3:forces:R:3 energy=-103.55577158089078 pbc="F F F"
Tl       0.00000000       0.00000000       0.00000000       0.00000000       0.00000000       0.47980869
Tl       0.00000000       0.00000000       3.23696970       0.00000000       0.00000000      -0.47980869
2
Properties=species:S:1:pos:R:3:forces:R:3 energy=-103.52648749566758 pbc="F F F"
Tl       0.00000000       0.00000000       0.00000000       0.00000000       0.00000000       0.51649147
Tl       0.00000000       0.00000000       3.29575758       0.00000000       0.00000000      -0.51649147
2
Properties=species:S:1:pos:R:3:forces:R:3 energy=-103.49499897159124 pbc="F F F"
Tl       0.00000000       0.00000000       0.00000000       0.00000000       0.00000000       0.55519879
Tl       0.00000000       0.00000000       3.35454545       0.00000000       0.00000000      -0.55519879
2
Properties=species:S:1:pos:R:3:forces:R:3 energy=-103.46116222225987 pbc="F F F"
Tl       0.00000000       0.00000000       0.00000000       0.00000000       0.00000000       0.59649777
Tl       0.00000000       0.00000000       3.41333333       0.00000000       0.00000000      -0.59649777
2
Properties=species:S:1:pos:R:3:forces:R:3 energy=-103.42486221278884 pbc="F F F"
Tl       0.00000000       0.00000000       0.00000000       0.00000000       0.00000000       0.63801485
Tl       0.00000000       0.00000000       3.47212121       0.00000000       0.00000000      -0.63801485
2
Properties=species:S:1:pos:R:3:forces:R:3 energy=-103.38621077697849 pbc="F F F"
Tl       0.00000000       0.00000000       0.00000000       0.00000000       0.00000000       0.67618591
Tl       0.00000000       0.00000000       3.53090909       0.00000000       0.00000000      -0.67618591
2
Properties=species:S:1:pos:R:3:forces:R:3 energy=-103.34548712647116 pbc="F F F"
Tl       0.00000000       0.00000000       0.00000000       0.00000000       0.00000000       0.70801276
Tl       0.00000000       0.00000000       3.58969697       0.00000000       0.00000000      -0.70801276
2
Properties=species:S:1:pos:R:3:forces:R:3 energy=-103.3031168030723 pbc="F F F"
Tl       0.00000000       0.00000000       0.00000000       0.00000000       0.00000000       0.73213530
Tl       0.00000000       0.00000000       3.64848485       0.00000000       0.00000000      -0.73213530
2
Properties=species:S:1:pos:R:3:forces:R:3 energy=-103.25954984285676 pbc="F F F"
Tl       0.00000000       0.00000000       0.00000000       0.00000000       0.00000000       0.74895477
Tl       0.00000000       0.00000000       3.70727273       0.00000000       0.00000000      -0.74895477
2
Properties=species:S:1:pos:R:3:forces:R:3 energy=-103.21516849800317 pbc="F F F"
Tl       0.00000000       0.00000000       0.00000000       0.00000000       0.00000000       0.76005745
Tl       0.00000000       0.00000000       3.76606061       0.00000000       0.00000000      -0.76005745
2
Properties=species:S:1:pos:R:3:forces:R:3 energy=-103.17025592884418 pbc="F F F"
Tl       0.00000000       0.00000000       0.00000000       0.00000000       0.00000000       0.76738030
Tl       0.00000000       0.00000000       3.82484848       0.00000000       0.00000000      -0.76738030
2
Properties=species:S:1:pos:R:3:forces:R:3 energy=-103.12498830837491 pbc="F F F"
Tl       0.00000000       0.00000000       0.00000000       0.00000000       0.00000000       0.77249813
Tl       0.00000000       0.00000000       3.88363636       0.00000000       0.00000000      -0.77249813
2
Properties=species:S:1:pos:R:3:forces:R:3 energy=-103.07945763916045 pbc="F F F"
Tl       0.00000000       0.00000000       0.00000000       0.00000000       0.00000000       0.77622122
Tl       0.00000000       0.00000000       3.94242424       0.00000000       0.00000000      -0.77622122
2
Properties=species:S:1:pos:R:3:forces:R:3 energy=-103.03374808925493 pbc="F F F"
Tl       0.00000000       0.00000000       0.00000000       0.00000000       0.00000000       0.77854657
Tl       0.00000000       0.00000000       4.00121212       0.00000000       0.00000000      -0.77854657
2
Properties=species:S:1:pos:R:3:forces:R:3 energy=-102.98795895324493 pbc="F F F"
Tl       0.00000000       0.00000000       0.00000000       0.00000000       0.00000000       0.77889156
Tl       0.00000000       0.00000000       4.06000000       0.00000000       0.00000000      -0.77889156
2
Properties=species:S:1:pos:R:3:forces:R:3 energy=-102.94222759824588 pbc="F F F"
Tl       0.00000000       0.00000000       0.00000000       0.00000000       0.00000000       0.77643347
Tl       0.00000000       0.00000000       4.11878788       0.00000000       0.00000000      -0.77643347
2
Properties=species:S:1:pos:R:3:forces:R:3 energy=-102.89673705765857 pbc="F F F"
Tl       0.00000000       0.00000000       0.00000000       0.00000000       0.00000000       0.77044457
Tl       0.00000000       0.00000000       4.17757576       0.00000000       0.00000000      -0.77044457
2
Properties=species:S:1:pos:R:3:forces:R:3 energy=-102.85171615867401 pbc="F F F"
Tl       0.00000000       0.00000000       0.00000000       0.00000000       0.00000000       0.76050478
Tl       0.00000000       0.00000000       4.23636364       0.00000000       0.00000000      -0.76050478
2
Properties=species:S:1:pos:R:3:forces:R:3 energy=-102.80740129848107 pbc="F F F"
Tl       0.00000000       0.00000000       0.00000000       0.00000000       0.00000000       0.74654913
Tl       0.00000000       0.00000000       4.29515152       0.00000000       0.00000000      -0.74654913
2
Properties=species:S:1:pos:R:3:forces:R:3 energy=-102.7640135933048 pbc="F F F"
Tl       0.00000000       0.00000000       0.00000000       0.00000000       0.00000000       0.72879767
Tl       0.00000000       0.00000000       4.35393939       0.00000000       0.00000000      -0.72879767
2
Properties=species:S:1:pos:R:3:forces:R:3 energy=-102.7217818117315 pbc="F F F"
Tl       0.00000000       0.00000000       0.00000000       0.00000000       0.00000000       0.70758283
Tl       0.00000000       0.00000000       4.41272727       0.00000000       0.00000000      -0.70758283
2
Properties=species:S:1:pos:R:3:forces:R:3 energy=-102.68088128411559 pbc="F F F"
Tl       0.00000000       0.00000000       0.00000000       0.00000000       0.00000000       0.68320423
Tl       0.00000000       0.00000000       4.47151515       0.00000000       0.00000000      -0.68320423
2
Properties=species:S:1:pos:R:3:forces:R:3 energy=-102.64151021949156 pbc="F F F"
Tl       0.00000000       0.00000000       0.00000000       0.00000000       0.00000000       0.65578920
Tl       0.00000000       0.00000000       4.53030303       0.00000000       0.00000000      -0.65578920
2
Properties=species:S:1:pos:R:3:forces:R:3 energy=-102.60384397830815 pbc="F F F"
Tl       0.00000000       0.00000000       0.00000000       0.00000000       0.00000000       0.62522364
Tl       0.00000000       0.00000000       4.58909091       0.00000000       0.00000000      -0.62522364
2
Properties=species:S:1:pos:R:3:forces:R:3 energy=-102.56806550764298 pbc="F F F"
Tl       0.00000000       0.00000000       0.00000000       0.00000000       0.00000000       0.59120619
Tl       0.00000000       0.00000000       4.64787879       0.00000000       0.00000000      -0.59120619
2
Properties=species:S:1:pos:R:3:forces:R:3 energy=-102.53440356578695 pbc="F F F"
Tl       0.00000000       0.00000000       0.00000000       0.00000000       0.00000000       0.55337530
Tl       0.00000000       0.00000000       4.70666667       0.00000000       0.00000000      -0.55337530
2
Properties=species:S:1:pos:R:3:forces:R:3 energy=-102.50307927213291 pbc="F F F"
Tl       0.00000000       0.00000000       0.00000000       0.00000000       0.00000000       0.51159441
Tl       0.00000000       0.00000000       4.76545455       0.00000000       0.00000000      -0.51159441
2
Properties=species:S:1:pos:R:3:forces:R:3 energy=-102.47432140081087 pbc="F F F"
Tl       0.00000000       0.00000000       0.00000000       0.00000000       0.00000000       0.46631452
Tl       0.00000000       0.00000000       4.82424242       0.00000000       0.00000000      -0.46631452
2
Properties=species:S:1:pos:R:3:forces:R:3 energy=-102.44829768921062 pbc="F F F"
Tl       0.00000000       0.00000000       0.00000000       0.00000000       0.00000000       0.41897824
Tl       0.00000000       0.00000000       4.88303030       0.00000000       0.00000000      -0.41897824
2
Properties=species:S:1:pos:R:3:forces:R:3 energy=-102.42505382816817 pbc="F F F"
Tl       0.00000000       0.00000000       0.00000000       0.00000000       0.00000000       0.37219077
Tl       0.00000000       0.00000000       4.94181818       0.00000000       0.00000000      -0.37219077
2
Properties=species:S:1:pos:R:3:forces:R:3 energy=-102.40445240146686 pbc="F F F"
Tl       0.00000000       0.00000000       0.00000000       0.00000000       0.00000000       0.32957199
Tl       0.00000000       0.00000000       5.00060606       0.00000000       0.00000000      -0.32957199
2
Properties=species:S:1:pos:R:3:forces:R:3 energy=-102.38614241577655 pbc="F F F"
Tl       0.00000000       0.00000000       0.00000000       0.00000000       0.00000000       0.29496205
Tl       0.00000000       0.00000000       5.05939394       0.00000000       0.00000000      -0.29496205
2
Properties=species:S:1:pos:R:3:forces:R:3 energy=-102.36955925551219 pbc="F F F"
Tl       0.00000000       0.00000000       0.00000000       0.00000000       0.00000000       0.27110332
Tl       0.00000000       0.00000000       5.11818182       0.00000000       0.00000000      -0.27110332
2
Properties=species:S:1:pos:R:3:forces:R:3 energy=-102.354054397588 pbc="F F F"
Tl       0.00000000       0.00000000       0.00000000       0.00000000       0.00000000       0.25798592
Tl       0.00000000       0.00000000       5.17696970       0.00000000       0.00000000      -0.25798592
2
Properties=species:S:1:pos:R:3:forces:R:3 energy=-102.33910141774112 pbc="F F F"
Tl       0.00000000       0.00000000       0.00000000       0.00000000       0.00000000       0.25133505
Tl       0.00000000       0.00000000       5.23575758       0.00000000       0.00000000      -0.25133505
2
Properties=species:S:1:pos:R:3:forces:R:3 energy=-102.32454777480629 pbc="F F F"
Tl       0.00000000       0.00000000       0.00000000       0.00000000       0.00000000       0.24252146
Tl       0.00000000       0.00000000       5.29454545       0.00000000       0.00000000      -0.24252146
2
Properties=species:S:1:pos:R:3:forces:R:3 energy=-102.31079024481647 pbc="F F F"
Tl       0.00000000       0.00000000       0.00000000       0.00000000       0.00000000       0.22340026
Tl       0.00000000       0.00000000       5.35333333       0.00000000       0.00000000      -0.22340026
2
Properties=species:S:1:pos:R:3:forces:R:3 energy=-102.29837822654129 pbc="F F F"
Tl       0.00000000       0.00000000       0.00000000       0.00000000       0.00000000       0.20005451
Tl       0.00000000       0.00000000       5.41212121       0.00000000       0.00000000      -0.20005451
2
Properties=species:S:1:pos:R:3:forces:R:3 energy=-102.28684645837895 pbc="F F F"
Tl       0.00000000       0.00000000       0.00000000       0.00000000       0.00000000       0.19754434
Tl       0.00000000       0.00000000       5.47090909       0.00000000       0.00000000      -0.19754434
2
Properties=species:S:1:pos:R:3:forces:R:3 energy=-102.27472259706563 pbc="F F F"
Tl       0.00000000       0.00000000       0.00000000       0.00000000       0.00000000       0.21462186
Tl       0.00000000       0.00000000       5.52969697       0.00000000       0.00000000      -0.21462186
2
Properties=species:S:1:pos:R:3:forces:R:3 energy=-102.26209073779555 pbc="F F F"
Tl       0.00000000       0.00000000       0.00000000       0.00000000       0.00000000       0.20938592
Tl       0.00000000       0.00000000       5.58848485       0.00000000       0.00000000      -0.20938592
2
Properties=species:S:1:pos:R:3:forces:R:3 energy=-102.25058377928266 pbc="F F F"
Tl       0.00000000       0.00000000       0.00000000       0.00000000       0.00000000       0.18162814
Tl       0.00000000       0.00000000       5.64727273       0.00000000       0.00000000      -0.18162814
2
Properties=species:S:1:pos:R:3:forces:R:3 energy=-102.24030876192559 pbc="F F F"
Tl       0.00000000       0.00000000       0.00000000       0.00000000       0.00000000       0.17499962
Tl       0.00000000       0.00000000       5.70606061       0.00000000       0.00000000      -0.17499962
2
Properties=species:S:1:pos:R:3:forces:R:3 energy=-102.22925178374557 pbc="F F F"
Tl       0.00000000       0.00000000       0.00000000       0.00000000       0.00000000       0.20232873
Tl       0.00000000       0.00000000       5.76484848       0.00000000       0.00000000      -0.20232873
2
Properties=species:S:1:pos:R:3:forces:R:3 energy=-102.2171842472187 pbc="F F F"
Tl       0.00000000       0.00000000       0.00000000       0.00000000       0.00000000       0.19707526
Tl       0.00000000       0.00000000       5.82363636       0.00000000       0.00000000      -0.19707526
2
Properties=species:S:1:pos:R:3:forces:R:3 energy=-102.20753968716281 pbc="F F F"
Tl       0.00000000       0.00000000       0.00000000       0.00000000       0.00000000       0.12331963
Tl       0.00000000       0.00000000       5.88242424       0.00000000       0.00000000      -0.12331963
2
Properties=species:S:1:pos:R:3:forces:R:3 energy=-102.20290480807289 pbc="F F F"
Tl       0.00000000       0.00000000       0.00000000       0.00000000       0.00000000       0.03794626
Tl       0.00000000       0.00000000       5.94121212       0.00000000       0.00000000      -0.03794626
2
Properties=species:S:1:pos:R:3:forces:R:3 energy=-102.2020439901597 pbc="F F F"
Tl       0.00000000       0.00000000       0.00000000       0.00000000       0.00000000       0.00298182
Tl       0.00000000       0.00000000       6.00000000       0.00000000       0.00000000      -0.00298182
