2
Properties=species:S:1:pos:R:3:forces:R:3 energy=-232844.51227196323 pbc="F F F"
Tm       0.00000000       0.00000000       0.00000000       0.00000000       0.00000000 -211510.34375000
Tm       0.00000000       0.00000000       0.18000000       0.00000000       0.00000000  211510.34375000
2
Properties=species:S:1:pos:R:3:forces:R:3 energy=-238710.46539696323 pbc="F F F"
Tm       0.00000000       0.00000000       0.00000000       0.00000000       0.00000000  -16538.76757812
Tm       0.00000000       0.00000000       0.23878788       0.00000000       0.00000000   16538.76757812
2
Properties=species:S:1:pos:R:3:forces:R:3 energy=-236147.18414696323 pbc="F F F"
Tm       0.00000000       0.00000000       0.00000000       0.00000000       0.00000000  101467.09375000
Tm       0.00000000       0.00000000       0.29757576       0.00000000       0.00000000 -101467.09375000
2
Properties=species:S:1:pos:R:3:forces:R:3 energy=-226586.49664696323 pbc="F F F"
Tm       0.00000000       0.00000000       0.00000000       0.00000000       0.00000000  227663.75000000
Tm       0.00000000       0.00000000       0.35636364       0.00000000       0.00000000 -227663.75000000
2
Properties=species:S:1:pos:R:3:forces:R:3 energy=-208892.98102196323 pbc="F F F"
Tm       0.00000000       0.00000000       0.00000000       0.00000000       0.00000000  377798.34375000
Tm       0.00000000       0.00000000       0.41515152       0.00000000       0.00000000 -377798.34375000
2
Properties=species:S:1:pos:R:3:forces:R:3 energy=-181930.40289696323 pbc="F F F"
Tm       0.00000000       0.00000000       0.00000000       0.00000000       0.00000000  538588.43750000
Tm       0.00000000       0.00000000       0.47393939       0.00000000       0.00000000 -538588.43750000
2
Properties=species:S:1:pos:R:3:forces:R:3 energy=-146143.10602196323 pbc="F F F"
Tm       0.00000000       0.00000000       0.00000000       0.00000000       0.00000000  669449.62500000
Tm       0.00000000       0.00000000       0.53272727       0.00000000       0.00000000 -669449.62500000
2
Properties=species:S:1:pos:R:3:forces:R:3 energy=-104874.4028969569 pbc="F F F"
Tm       0.00000000       0.00000000       0.00000000       0.00000000       0.00000000  716231.68750000
Tm       0.00000000       0.00000000       0.59151515       0.00000000       0.00000000 -716231.68750000
2
Properties=species:S:1:pos:R:3:forces:R:3 energy=-64383.21930320374 pbc="F F F"
Tm       0.00000000       0.00000000       0.00000000       0.00000000       0.00000000  639863.43750000
Tm       0.00000000       0.00000000       0.65030303       0.00000000       0.00000000 -639863.43750000
2
Properties=species:S:1:pos:R:3:forces:R:3 energy=-31829.584537569237 pbc="F F F"
Tm       0.00000000       0.00000000       0.00000000       0.00000000       0.00000000  454293.31250000
Tm       0.00000000       0.00000000       0.70909091       0.00000000       0.00000000 -454293.31250000
2
Properties=species:S:1:pos:R:3:forces:R:3 energy=-11599.985904750401 pbc="F F F"
Tm       0.00000000       0.00000000       0.00000000       0.00000000       0.00000000  237140.51562500
Tm       0.00000000       0.00000000       0.76787879       0.00000000       0.00000000 -237140.51562500
2
Properties=species:S:1:pos:R:3:forces:R:3 energy=-2722.9387855907694 pbc="F F F"
Tm       0.00000000       0.00000000       0.00000000       0.00000000       0.00000000   80109.26562500
Tm       0.00000000       0.00000000       0.82666667       0.00000000       0.00000000  -80109.26562500
2
Properties=species:S:1:pos:R:3:forces:R:3 energy=-350.01626970262186 pbc="F F F"
Tm       0.00000000       0.00000000       0.00000000       0.00000000       0.00000000   13837.70605469
Tm       0.00000000       0.00000000       0.88545455       0.00000000       0.00000000  -13837.70605469
2
Properties=species:S:1:pos:R:3:forces:R:3 energy=-38.67541120830314 pbc="F F F"
Tm       0.00000000       0.00000000       0.00000000       0.00000000       0.00000000     451.52767944
Tm       0.00000000       0.00000000       0.94424242       0.00000000       0.00000000    -451.52767944
2
Properties=species:S:1:pos:R:3:forces:R:3 energy=-29.655754032111687 pbc="F F F"
Tm       0.00000000       0.00000000       0.00000000       0.00000000       0.00000000     -36.20971680
Tm       0.00000000       0.00000000       1.00303030       0.00000000       0.00000000      36.20971680
2
Properties=species:S:1:pos:R:3:forces:R:3 energy=-37.68867099779597 pbc="F F F"
Tm       0.00000000       0.00000000       0.00000000       0.00000000       0.00000000    -114.92188263
Tm       0.00000000       0.00000000       1.06181818       0.00000000       0.00000000     114.92188263
2
Properties=species:S:1:pos:R:3:forces:R:3 energy=-43.8823583639009 pbc="F F F"
Tm       0.00000000       0.00000000       0.00000000       0.00000000       0.00000000     -95.40908813
Tm       0.00000000       0.00000000       1.12060606       0.00000000       0.00000000      95.40908813
2
Properties=species:S:1:pos:R:3:forces:R:3 energy=-48.929118824780446 pbc="F F F"
Tm       0.00000000       0.00000000       0.00000000       0.00000000       0.00000000     -75.83649445
Tm       0.00000000       0.00000000       1.17939394       0.00000000       0.00000000      75.83649445
2
Properties=species:S:1:pos:R:3:forces:R:3 energy=-52.74540287775506 pbc="F F F"
Tm       0.00000000       0.00000000       0.00000000       0.00000000       0.00000000     -54.43149948
Tm       0.00000000       0.00000000       1.23818182       0.00000000       0.00000000      54.43149948
2
Properties=species:S:1:pos:R:3:forces:R:3 energy=-55.46315326868036 pbc="F F F"
Tm       0.00000000       0.00000000       0.00000000       0.00000000       0.00000000     -39.26654816
Tm       0.00000000       0.00000000       1.29696970       0.00000000       0.00000000      39.26654816
2
Properties=species:S:1:pos:R:3:forces:R:3 energy=-57.46772307009614 pbc="F F F"
Tm       0.00000000       0.00000000       0.00000000       0.00000000       0.00000000     -29.53299522
Tm       0.00000000       0.00000000       1.35575758       0.00000000       0.00000000      29.53299522
2
Properties=species:S:1:pos:R:3:forces:R:3 energy=-58.99097721436944 pbc="F F F"
Tm       0.00000000       0.00000000       0.00000000       0.00000000       0.00000000     -22.69043541
Tm       0.00000000       0.00000000       1.41454545       0.00000000       0.00000000      22.69043541
2
Properties=species:S:1:pos:R:3:forces:R:3 energy=-60.176539034544106 pbc="F F F"
Tm       0.00000000       0.00000000       0.00000000       0.00000000       0.00000000     -17.93061638
Tm       0.00000000       0.00000000       1.47333333       0.00000000       0.00000000      17.93061638
2
Properties=species:S:1:pos:R:3:forces:R:3 energy=-61.12484569175896 pbc="F F F"
Tm       0.00000000       0.00000000       0.00000000       0.00000000       0.00000000     -14.47972679
Tm       0.00000000       0.00000000       1.53212121       0.00000000       0.00000000      14.47972679
2
Properties=species:S:1:pos:R:3:forces:R:3 energy=-61.889566142837154 pbc="F F F"
Tm       0.00000000       0.00000000       0.00000000       0.00000000       0.00000000     -11.58562756
Tm       0.00000000       0.00000000       1.59090909       0.00000000       0.00000000      11.58562756
2
Properties=species:S:1:pos:R:3:forces:R:3 energy=-62.492444149521454 pbc="F F F"
Tm       0.00000000       0.00000000       0.00000000       0.00000000       0.00000000      -8.99317646
Tm       0.00000000       0.00000000       1.64969697       0.00000000       0.00000000       8.99317646
2
Properties=species:S:1:pos:R:3:forces:R:3 energy=-62.95995369499619 pbc="F F F"
Tm       0.00000000       0.00000000       0.00000000       0.00000000       0.00000000      -7.05830526
Tm       0.00000000       0.00000000       1.70848485       0.00000000       0.00000000       7.05830526
2
Properties=species:S:1:pos:R:3:forces:R:3 energy=-63.33968311181091 pbc="F F F"
Tm       0.00000000       0.00000000       0.00000000       0.00000000       0.00000000      -5.98023176
Tm       0.00000000       0.00000000       1.76727273       0.00000000       0.00000000       5.98023176
2
Properties=species:S:1:pos:R:3:forces:R:3 energy=-63.67071013974777 pbc="F F F"
Tm       0.00000000       0.00000000       0.00000000       0.00000000       0.00000000      -5.28885412
Tm       0.00000000       0.00000000       1.82606061       0.00000000       0.00000000       5.28885412
2
Properties=species:S:1:pos:R:3:forces:R:3 energy=-63.95752083428072 pbc="F F F"
Tm       0.00000000       0.00000000       0.00000000       0.00000000       0.00000000      -4.41195869
Tm       0.00000000       0.00000000       1.88484848       0.00000000       0.00000000       4.41195869
2
Properties=species:S:1:pos:R:3:forces:R:3 energy=-64.1836204285941 pbc="F F F"
Tm       0.00000000       0.00000000       0.00000000       0.00000000       0.00000000      -3.25420332
Tm       0.00000000       0.00000000       1.94363636       0.00000000       0.00000000       3.25420332
2
Properties=species:S:1:pos:R:3:forces:R:3 energy=-64.34153207803341 pbc="F F F"
Tm       0.00000000       0.00000000       0.00000000       0.00000000       0.00000000      -2.16811728
Tm       0.00000000       0.00000000       2.00242424       0.00000000       0.00000000       2.16811728
2
Properties=species:S:1:pos:R:3:forces:R:3 energy=-64.4476704027579 pbc="F F F"
Tm       0.00000000       0.00000000       0.00000000       0.00000000       0.00000000      -1.53591657
Tm       0.00000000       0.00000000       2.06121212       0.00000000       0.00000000       1.53591657
2
Properties=species:S:1:pos:R:3:forces:R:3 energy=-64.53259871924587 pbc="F F F"
Tm       0.00000000       0.00000000       0.00000000       0.00000000       0.00000000      -1.42926002
Tm       0.00000000       0.00000000       2.12000000       0.00000000       0.00000000       1.42926002
2
Properties=species:S:1:pos:R:3:forces:R:3 energy=-64.62233323117066 pbc="F F F"
Tm       0.00000000       0.00000000       0.00000000       0.00000000       0.00000000      -1.66005850
Tm       0.00000000       0.00000000       2.17878788       0.00000000       0.00000000       1.66005850
2
Properties=species:S:1:pos:R:3:forces:R:3 energy=-64.73017955190963 pbc="F F F"
Tm       0.00000000       0.00000000       0.00000000       0.00000000       0.00000000      -2.01633978
Tm       0.00000000       0.00000000       2.23757576       0.00000000       0.00000000       2.01633978
2
Properties=species:S:1:pos:R:3:forces:R:3 energy=-64.85925043641767 pbc="F F F"
Tm       0.00000000       0.00000000       0.00000000       0.00000000       0.00000000      -2.36685634
Tm       0.00000000       0.00000000       2.29636364       0.00000000       0.00000000       2.36685634
2
Properties=species:S:1:pos:R:3:forces:R:3 energy=-65.00704339577116 pbc="F F F"
Tm       0.00000000       0.00000000       0.00000000       0.00000000       0.00000000      -2.64614058
Tm       0.00000000       0.00000000       2.35515152       0.00000000       0.00000000       2.64614058
2
Properties=species:S:1:pos:R:3:forces:R:3 energy=-65.1684619405703 pbc="F F F"
Tm       0.00000000       0.00000000       0.00000000       0.00000000       0.00000000      -2.82842684
Tm       0.00000000       0.00000000       2.41393939       0.00000000       0.00000000       2.82842684
2
Properties=species:S:1:pos:R:3:forces:R:3 energy=-65.33760085925924 pbc="F F F"
Tm       0.00000000       0.00000000       0.00000000       0.00000000       0.00000000      -2.90892911
Tm       0.00000000       0.00000000       2.47272727       0.00000000       0.00000000       2.90892911
2
Properties=species:S:1:pos:R:3:forces:R:3 energy=-65.50848626939577 pbc="F F F"
Tm       0.00000000       0.00000000       0.00000000       0.00000000       0.00000000      -2.88782310
Tm       0.00000000       0.00000000       2.53151515       0.00000000       0.00000000       2.88782310
2
Properties=species:S:1:pos:R:3:forces:R:3 energy=-65.67516718622471 pbc="F F F"
Tm       0.00000000       0.00000000       0.00000000       0.00000000       0.00000000      -2.76643896
Tm       0.00000000       0.00000000       2.59030303       0.00000000       0.00000000       2.76643896
2
Properties=species:S:1:pos:R:3:forces:R:3 energy=-65.83197488091032 pbc="F F F"
Tm       0.00000000       0.00000000       0.00000000       0.00000000       0.00000000      -2.55467963
Tm       0.00000000       0.00000000       2.64909091       0.00000000       0.00000000       2.55467963
2
Properties=species:S:1:pos:R:3:forces:R:3 energy=-65.9742324712485 pbc="F F F"
Tm       0.00000000       0.00000000       0.00000000       0.00000000       0.00000000      -2.27697515
Tm       0.00000000       0.00000000       2.70787879       0.00000000       0.00000000       2.27697515
2
Properties=species:S:1:pos:R:3:forces:R:3 energy=-66.09910172743895 pbc="F F F"
Tm       0.00000000       0.00000000       0.00000000       0.00000000       0.00000000      -1.96949565
Tm       0.00000000       0.00000000       2.76666667       0.00000000       0.00000000       1.96949565
2
Properties=species:S:1:pos:R:3:forces:R:3 energy=-66.20597220605235 pbc="F F F"
Tm       0.00000000       0.00000000       0.00000000       0.00000000       0.00000000      -1.67069983
Tm       0.00000000       0.00000000       2.82545455       0.00000000       0.00000000       1.67069983
2
Properties=species:S:1:pos:R:3:forces:R:3 energy=-66.29631628203073 pbc="F F F"
Tm       0.00000000       0.00000000       0.00000000       0.00000000       0.00000000      -1.41117883
Tm       0.00000000       0.00000000       2.88424242       0.00000000       0.00000000       1.41117883
2
Properties=species:S:1:pos:R:3:forces:R:3 energy=-66.372994876953 pbc="F F F"
Tm       0.00000000       0.00000000       0.00000000       0.00000000       0.00000000      -1.20725846
Tm       0.00000000       0.00000000       2.94303030       0.00000000       0.00000000       1.20725846
2
Properties=species:S:1:pos:R:3:forces:R:3 energy=-66.43937243343022 pbc="F F F"
Tm       0.00000000       0.00000000       0.00000000       0.00000000       0.00000000      -1.05971861
Tm       0.00000000       0.00000000       3.00181818       0.00000000       0.00000000       1.05971861
2
Properties=species:S:1:pos:R:3:forces:R:3 energy=-66.49847007448732 pbc="F F F"
Tm       0.00000000       0.00000000       0.00000000       0.00000000       0.00000000      -0.95662153
Tm       0.00000000       0.00000000       3.06060606       0.00000000       0.00000000       0.95662153
2
Properties=species:S:1:pos:R:3:forces:R:3 energy=-66.5523399773725 pbc="F F F"
Tm       0.00000000       0.00000000       0.00000000       0.00000000       0.00000000      -0.87844181
Tm       0.00000000       0.00000000       3.11939394       0.00000000       0.00000000       0.87844181
2
Properties=species:S:1:pos:R:3:forces:R:3 energy=-66.60182123610004 pbc="F F F"
Tm       0.00000000       0.00000000       0.00000000       0.00000000       0.00000000      -0.80393732
Tm       0.00000000       0.00000000       3.17818182       0.00000000       0.00000000       0.80393732
2
Properties=species:S:1:pos:R:3:forces:R:3 energy=-66.64658563464961 pbc="F F F"
Tm       0.00000000       0.00000000       0.00000000       0.00000000       0.00000000      -0.71530563
Tm       0.00000000       0.00000000       3.23696970       0.00000000       0.00000000       0.71530563
2
Properties=species:S:1:pos:R:3:forces:R:3 energy=-66.68541992189272 pbc="F F F"
Tm       0.00000000       0.00000000       0.00000000       0.00000000       0.00000000      -0.60102499
Tm       0.00000000       0.00000000       3.29575758       0.00000000       0.00000000       0.60102499
2
Properties=species:S:1:pos:R:3:forces:R:3 energy=-66.71663784324684 pbc="F F F"
Tm       0.00000000       0.00000000       0.00000000       0.00000000       0.00000000      -0.45587385
Tm       0.00000000       0.00000000       3.35454545       0.00000000       0.00000000       0.45587385
2
Properties=species:S:1:pos:R:3:forces:R:3 energy=-66.73840051505718 pbc="F F F"
Tm       0.00000000       0.00000000       0.00000000       0.00000000       0.00000000      -0.27937210
Tm       0.00000000       0.00000000       3.41333333       0.00000000       0.00000000       0.27937210
2
Properties=species:S:1:pos:R:3:forces:R:3 energy=-66.74893009516076 pbc="F F F"
Tm       0.00000000       0.00000000       0.00000000       0.00000000       0.00000000      -0.07477182
Tm       0.00000000       0.00000000       3.47212121       0.00000000       0.00000000       0.07477182
2
Properties=species:S:1:pos:R:3:forces:R:3 energy=-66.74679206414858 pbc="F F F"
Tm       0.00000000       0.00000000       0.00000000       0.00000000       0.00000000       0.15021163
Tm       0.00000000       0.00000000       3.53090909       0.00000000       0.00000000      -0.15021163
2
Properties=species:S:1:pos:R:3:forces:R:3 energy=-66.7311393343123 pbc="F F F"
Tm       0.00000000       0.00000000       0.00000000       0.00000000       0.00000000       0.38167468
Tm       0.00000000       0.00000000       3.58969697       0.00000000       0.00000000      -0.38167468
2
Properties=species:S:1:pos:R:3:forces:R:3 energy=-66.70218533229381 pbc="F F F"
Tm       0.00000000       0.00000000       0.00000000       0.00000000       0.00000000       0.59911263
Tm       0.00000000       0.00000000       3.64848485       0.00000000       0.00000000      -0.59911263
2
Properties=species:S:1:pos:R:3:forces:R:3 energy=-66.66144805417906 pbc="F F F"
Tm       0.00000000       0.00000000       0.00000000       0.00000000       0.00000000       0.77864021
Tm       0.00000000       0.00000000       3.70727273       0.00000000       0.00000000      -0.77864021
2
Properties=species:S:1:pos:R:3:forces:R:3 energy=-66.61178830750538 pbc="F F F"
Tm       0.00000000       0.00000000       0.00000000       0.00000000       0.00000000       0.89987946
Tm       0.00000000       0.00000000       3.76606061       0.00000000       0.00000000      -0.89987946
2
Properties=species:S:1:pos:R:3:forces:R:3 energy=-66.55698237330083 pbc="F F F"
Tm       0.00000000       0.00000000       0.00000000       0.00000000       0.00000000       0.95314282
Tm       0.00000000       0.00000000       3.82484848       0.00000000       0.00000000      -0.95314282
2
Properties=species:S:1:pos:R:3:forces:R:3 energy=-66.50098201817119 pbc="F F F"
Tm       0.00000000       0.00000000       0.00000000       0.00000000       0.00000000       0.94232577
Tm       0.00000000       0.00000000       3.88363636       0.00000000       0.00000000      -0.94232577
2
Properties=species:S:1:pos:R:3:forces:R:3 energy=-66.44715915256312 pbc="F F F"
Tm       0.00000000       0.00000000       0.00000000       0.00000000       0.00000000       0.88200170
Tm       0.00000000       0.00000000       3.94242424       0.00000000       0.00000000      -0.88200170
2
Properties=species:S:1:pos:R:3:forces:R:3 energy=-66.39787097745057 pbc="F F F"
Tm       0.00000000       0.00000000       0.00000000       0.00000000       0.00000000       0.79142529
Tm       0.00000000       0.00000000       4.00121212       0.00000000       0.00000000      -0.79142529
2
Properties=species:S:1:pos:R:3:forces:R:3 energy=-66.35433788867982 pbc="F F F"
Tm       0.00000000       0.00000000       0.00000000       0.00000000       0.00000000       0.68907815
Tm       0.00000000       0.00000000       4.06000000       0.00000000       0.00000000      -0.68907815
2
Properties=species:S:1:pos:R:3:forces:R:3 energy=-66.31679609970605 pbc="F F F"
Tm       0.00000000       0.00000000       0.00000000       0.00000000       0.00000000       0.58956057
Tm       0.00000000       0.00000000       4.11878788       0.00000000       0.00000000      -0.58956057
2
Properties=species:S:1:pos:R:3:forces:R:3 energy=-66.28477226495046 pbc="F F F"
Tm       0.00000000       0.00000000       0.00000000       0.00000000       0.00000000       0.50254351
Tm       0.00000000       0.00000000       4.17757576       0.00000000       0.00000000      -0.50254351
2
Properties=species:S:1:pos:R:3:forces:R:3 energy=-66.25735816334597 pbc="F F F"
Tm       0.00000000       0.00000000       0.00000000       0.00000000       0.00000000       0.43306345
Tm       0.00000000       0.00000000       4.23636364       0.00000000       0.00000000      -0.43306345
2
Properties=species:S:1:pos:R:3:forces:R:3 energy=-66.23347771447453 pbc="F F F"
Tm       0.00000000       0.00000000       0.00000000       0.00000000       0.00000000       0.38252908
Tm       0.00000000       0.00000000       4.29515152       0.00000000       0.00000000      -0.38252908
2
Properties=species:S:1:pos:R:3:forces:R:3 energy=-66.21203194973451 pbc="F F F"
Tm       0.00000000       0.00000000       0.00000000       0.00000000       0.00000000       0.35002592
Tm       0.00000000       0.00000000       4.35393939       0.00000000       0.00000000      -0.35002592
2
Properties=species:S:1:pos:R:3:forces:R:3 energy=-66.19201345009078 pbc="F F F"
Tm       0.00000000       0.00000000       0.00000000       0.00000000       0.00000000       0.33356991
Tm       0.00000000       0.00000000       4.41272727       0.00000000       0.00000000      -0.33356991
2
Properties=species:S:1:pos:R:3:forces:R:3 energy=-66.172536844646 pbc="F F F"
Tm       0.00000000       0.00000000       0.00000000       0.00000000       0.00000000       0.33106402
Tm       0.00000000       0.00000000       4.47151515       0.00000000       0.00000000      -0.33106402
2
Properties=species:S:1:pos:R:3:forces:R:3 energy=-66.15284648755245 pbc="F F F"
Tm       0.00000000       0.00000000       0.00000000       0.00000000       0.00000000       0.34066808
Tm       0.00000000       0.00000000       4.53030303       0.00000000       0.00000000      -0.34066808
2
Properties=species:S:1:pos:R:3:forces:R:3 energy=-66.13228589291653 pbc="F F F"
Tm       0.00000000       0.00000000       0.00000000       0.00000000       0.00000000       0.36053771
Tm       0.00000000       0.00000000       4.58909091       0.00000000       0.00000000      -0.36053771
2
Properties=species:S:1:pos:R:3:forces:R:3 energy=-66.11030540220719 pbc="F F F"
Tm       0.00000000       0.00000000       0.00000000       0.00000000       0.00000000       0.38813367
Tm       0.00000000       0.00000000       4.64787879       0.00000000       0.00000000      -0.38813367
2
Properties=species:S:1:pos:R:3:forces:R:3 energy=-66.08656897518853 pbc="F F F"
Tm       0.00000000       0.00000000       0.00000000       0.00000000       0.00000000       0.41948673
Tm       0.00000000       0.00000000       4.70666667       0.00000000       0.00000000      -0.41948673
2
Properties=species:S:1:pos:R:3:forces:R:3 energy=-66.06102287030967 pbc="F F F"
Tm       0.00000000       0.00000000       0.00000000       0.00000000       0.00000000       0.44899338
Tm       0.00000000       0.00000000       4.76545455       0.00000000       0.00000000      -0.44899338
2
Properties=species:S:1:pos:R:3:forces:R:3 energy=-66.03394904888263 pbc="F F F"
Tm       0.00000000       0.00000000       0.00000000       0.00000000       0.00000000       0.47012651
Tm       0.00000000       0.00000000       4.82424242       0.00000000       0.00000000      -0.47012651
2
Properties=species:S:1:pos:R:3:forces:R:3 energy=-66.00602621657407 pbc="F F F"
Tm       0.00000000       0.00000000       0.00000000       0.00000000       0.00000000       0.47694355
Tm       0.00000000       0.00000000       4.88303030       0.00000000       0.00000000      -0.47694355
2
Properties=species:S:1:pos:R:3:forces:R:3 energy=-65.97822300396248 pbc="F F F"
Tm       0.00000000       0.00000000       0.00000000       0.00000000       0.00000000       0.46584404
Tm       0.00000000       0.00000000       4.94181818       0.00000000       0.00000000      -0.46584404
2
Properties=species:S:1:pos:R:3:forces:R:3 energy=-65.95160724751388 pbc="F F F"
Tm       0.00000000       0.00000000       0.00000000       0.00000000       0.00000000       0.43681332
Tm       0.00000000       0.00000000       5.00060606       0.00000000       0.00000000      -0.43681332
2
Properties=species:S:1:pos:R:3:forces:R:3 energy=-65.92713999751341 pbc="F F F"
Tm       0.00000000       0.00000000       0.00000000       0.00000000       0.00000000       0.39359418
Tm       0.00000000       0.00000000       5.05939394       0.00000000       0.00000000      -0.39359418
2
Properties=species:S:1:pos:R:3:forces:R:3 energy=-65.9054847800343 pbc="F F F"
Tm       0.00000000       0.00000000       0.00000000       0.00000000       0.00000000       0.34262341
Tm       0.00000000       0.00000000       5.11818182       0.00000000       0.00000000      -0.34262341
2
Properties=species:S:1:pos:R:3:forces:R:3 energy=-65.88687027733968 pbc="F F F"
Tm       0.00000000       0.00000000       0.00000000       0.00000000       0.00000000       0.29112363
Tm       0.00000000       0.00000000       5.17696970       0.00000000       0.00000000      -0.29112363
2
Properties=species:S:1:pos:R:3:forces:R:3 energy=-65.87115136303889 pbc="F F F"
Tm       0.00000000       0.00000000       0.00000000       0.00000000       0.00000000       0.24478665
Tm       0.00000000       0.00000000       5.23575758       0.00000000       0.00000000      -0.24478665
2
Properties=species:S:1:pos:R:3:forces:R:3 energy=-65.85793881604967 pbc="F F F"
Tm       0.00000000       0.00000000       0.00000000       0.00000000       0.00000000       0.20598936
Tm       0.00000000       0.00000000       5.29454545       0.00000000       0.00000000      -0.20598936
2
Properties=species:S:1:pos:R:3:forces:R:3 energy=-65.84679004437412 pbc="F F F"
Tm       0.00000000       0.00000000       0.00000000       0.00000000       0.00000000       0.17447159
Tm       0.00000000       0.00000000       5.35333333       0.00000000       0.00000000      -0.17447159
2
Properties=species:S:1:pos:R:3:forces:R:3 energy=-65.83723960901239 pbc="F F F"
Tm       0.00000000       0.00000000       0.00000000       0.00000000       0.00000000       0.15260528
Tm       0.00000000       0.00000000       5.41212121       0.00000000       0.00000000      -0.15260528
2
Properties=species:S:1:pos:R:3:forces:R:3 energy=-65.82850932914532 pbc="F F F"
Tm       0.00000000       0.00000000       0.00000000       0.00000000       0.00000000       0.14752877
Tm       0.00000000       0.00000000       5.47090909       0.00000000       0.00000000      -0.14752877
2
Properties=species:S:1:pos:R:3:forces:R:3 energy=-65.81965321370402 pbc="F F F"
Tm       0.00000000       0.00000000       0.00000000       0.00000000       0.00000000       0.15406747
Tm       0.00000000       0.00000000       5.52969697       0.00000000       0.00000000      -0.15406747
2
Properties=species:S:1:pos:R:3:forces:R:3 energy=-65.81057982716352 pbc="F F F"
Tm       0.00000000       0.00000000       0.00000000       0.00000000       0.00000000       0.15211792
Tm       0.00000000       0.00000000       5.58848485       0.00000000       0.00000000      -0.15211792
2
Properties=species:S:1:pos:R:3:forces:R:3 energy=-65.80200651317564 pbc="F F F"
Tm       0.00000000       0.00000000       0.00000000       0.00000000       0.00000000       0.13891919
Tm       0.00000000       0.00000000       5.64727273       0.00000000       0.00000000      -0.13891919
2
Properties=species:S:1:pos:R:3:forces:R:3 energy=-65.79411660212449 pbc="F F F"
Tm       0.00000000       0.00000000       0.00000000       0.00000000       0.00000000       0.13215899
Tm       0.00000000       0.00000000       5.70606061       0.00000000       0.00000000      -0.13215899
2
Properties=species:S:1:pos:R:3:forces:R:3 energy=-65.78618559296923 pbc="F F F"
Tm       0.00000000       0.00000000       0.00000000       0.00000000       0.00000000       0.13753547
Tm       0.00000000       0.00000000       5.76484848       0.00000000       0.00000000      -0.13753547
2
Properties=species:S:1:pos:R:3:forces:R:3 energy=-65.77831303689007 pbc="F F F"
Tm       0.00000000       0.00000000       0.00000000       0.00000000       0.00000000       0.12470544
Tm       0.00000000       0.00000000       5.82363636       0.00000000       0.00000000      -0.12470544
2
Properties=species:S:1:pos:R:3:forces:R:3 energy=-65.77225410011042 pbc="F F F"
Tm       0.00000000       0.00000000       0.00000000       0.00000000       0.00000000       0.07785597
Tm       0.00000000       0.00000000       5.88242424       0.00000000       0.00000000      -0.07785597
2
Properties=species:S:1:pos:R:3:forces:R:3 energy=-65.76922996568032 pbc="F F F"
Tm       0.00000000       0.00000000       0.00000000       0.00000000       0.00000000       0.02709160
Tm       0.00000000       0.00000000       5.94121212       0.00000000       0.00000000      -0.02709160
2
Properties=species:S:1:pos:R:3:forces:R:3 energy=-65.76844771668223 pbc="F F F"
Tm       0.00000000       0.00000000       0.00000000       0.00000000       0.00000000       0.00649951
Tm       0.00000000       0.00000000       6.00000000       0.00000000       0.00000000      -0.00649951
