2
Properties=species:S:1:pos:R:3:forces:R:3 energy=-232843.48102196323 pbc="F F F"
Tm       0.00000000       0.00000000       0.00000000       0.00000000       0.00000000 -211510.42187500
Tm       0.00000000       0.00000000       0.18000000       0.00000000       0.00000000  211510.42187500
2
Properties=species:S:1:pos:R:3:forces:R:3 energy=-238709.79352196323 pbc="F F F"
Tm       0.00000000       0.00000000       0.00000000       0.00000000       0.00000000  -16540.95312500
Tm       0.00000000       0.00000000       0.23878788       0.00000000       0.00000000   16540.95312500
2
Properties=species:S:1:pos:R:3:forces:R:3 energy=-236146.15289696323 pbc="F F F"
Tm       0.00000000       0.00000000       0.00000000       0.00000000       0.00000000  101466.57031250
Tm       0.00000000       0.00000000       0.29757576       0.00000000       0.00000000 -101466.57031250
2
Properties=species:S:1:pos:R:3:forces:R:3 energy=-226585.91852196323 pbc="F F F"
Tm       0.00000000       0.00000000       0.00000000       0.00000000       0.00000000  227663.00000000
Tm       0.00000000       0.00000000       0.35636364       0.00000000       0.00000000 -227663.00000000
2
Properties=species:S:1:pos:R:3:forces:R:3 energy=-208892.66852196323 pbc="F F F"
Tm       0.00000000       0.00000000       0.00000000       0.00000000       0.00000000  377797.84375000
Tm       0.00000000       0.00000000       0.41515152       0.00000000       0.00000000 -377797.84375000
2
Properties=species:S:1:pos:R:3:forces:R:3 energy=-181930.05914696323 pbc="F F F"
Tm       0.00000000       0.00000000       0.00000000       0.00000000       0.00000000  538588.68750000
Tm       0.00000000       0.00000000       0.47393939       0.00000000       0.00000000 -538588.68750000
2
Properties=species:S:1:pos:R:3:forces:R:3 energy=-146143.34039696323 pbc="F F F"
Tm       0.00000000       0.00000000       0.00000000       0.00000000       0.00000000  669451.06250000
Tm       0.00000000       0.00000000       0.53272727       0.00000000       0.00000000 -669451.06250000
2
Properties=species:S:1:pos:R:3:forces:R:3 energy=-104874.8872719569 pbc="F F F"
Tm       0.00000000       0.00000000       0.00000000       0.00000000       0.00000000  716234.62500000
Tm       0.00000000       0.00000000       0.59151515       0.00000000       0.00000000 -716234.62500000
2
Properties=species:S:1:pos:R:3:forces:R:3 energy=-64383.18805320374 pbc="F F F"
Tm       0.00000000       0.00000000       0.00000000       0.00000000       0.00000000  639862.68750000
Tm       0.00000000       0.00000000       0.65030303       0.00000000       0.00000000 -639862.68750000
2
Properties=species:S:1:pos:R:3:forces:R:3 energy=-31829.617740694237 pbc="F F F"
Tm       0.00000000       0.00000000       0.00000000       0.00000000       0.00000000  454293.62500000
Tm       0.00000000       0.00000000       0.70909091       0.00000000       0.00000000 -454293.62500000
2
Properties=species:S:1:pos:R:3:forces:R:3 energy=-11599.880436000401 pbc="F F F"
Tm       0.00000000       0.00000000       0.00000000       0.00000000       0.00000000  237138.56250000
Tm       0.00000000       0.00000000       0.76787879       0.00000000       0.00000000 -237138.56250000
2
Properties=species:S:1:pos:R:3:forces:R:3 energy=-2722.9204750438944 pbc="F F F"
Tm       0.00000000       0.00000000       0.00000000       0.00000000       0.00000000   80108.72656250
Tm       0.00000000       0.00000000       0.82666667       0.00000000       0.00000000  -80108.72656250
2
Properties=species:S:1:pos:R:3:forces:R:3 energy=-350.01678850145 pbc="F F F"
Tm       0.00000000       0.00000000       0.00000000       0.00000000       0.00000000   13837.71875000
Tm       0.00000000       0.00000000       0.88545455       0.00000000       0.00000000  -13837.71875000
2
Properties=species:S:1:pos:R:3:forces:R:3 energy=-38.67533109966056 pbc="F F F"
Tm       0.00000000       0.00000000       0.00000000       0.00000000       0.00000000     451.52639771
Tm       0.00000000       0.00000000       0.94424242       0.00000000       0.00000000    -451.52639771
2
Properties=species:S:1:pos:R:3:forces:R:3 energy=-29.65573495862536 pbc="F F F"
Tm       0.00000000       0.00000000       0.00000000       0.00000000       0.00000000     -36.21038818
Tm       0.00000000       0.00000000       1.00303030       0.00000000       0.00000000      36.21038818
2
Properties=species:S:1:pos:R:3:forces:R:3 energy=-37.68861377733698 pbc="F F F"
Tm       0.00000000       0.00000000       0.00000000       0.00000000       0.00000000    -114.92207336
Tm       0.00000000       0.00000000       1.06181818       0.00000000       0.00000000     114.92207336
2
Properties=species:S:1:pos:R:3:forces:R:3 energy=-43.88233929041457 pbc="F F F"
Tm       0.00000000       0.00000000       0.00000000       0.00000000       0.00000000     -95.40920258
Tm       0.00000000       0.00000000       1.12060606       0.00000000       0.00000000      95.40920258
2
Properties=species:S:1:pos:R:3:forces:R:3 energy=-48.929084492505055 pbc="F F F"
Tm       0.00000000       0.00000000       0.00000000       0.00000000       0.00000000     -75.83671570
Tm       0.00000000       0.00000000       1.17939394       0.00000000       0.00000000      75.83671570
2
Properties=species:S:1:pos:R:3:forces:R:3 energy=-52.7453761748742 pbc="F F F"
Tm       0.00000000       0.00000000       0.00000000       0.00000000       0.00000000     -54.43160248
Tm       0.00000000       0.00000000       1.23818182       0.00000000       0.00000000      54.43160248
2
Properties=species:S:1:pos:R:3:forces:R:3 energy=-55.46314945398309 pbc="F F F"
Tm       0.00000000       0.00000000       0.00000000       0.00000000       0.00000000     -39.26657486
Tm       0.00000000       0.00000000       1.29696970       0.00000000       0.00000000      39.26657486
2
Properties=species:S:1:pos:R:3:forces:R:3 energy=-57.46771544070161 pbc="F F F"
Tm       0.00000000       0.00000000       0.00000000       0.00000000       0.00000000     -29.53301620
Tm       0.00000000       0.00000000       1.35575758       0.00000000       0.00000000      29.53301620
2
Properties=species:S:1:pos:R:3:forces:R:3 energy=-58.99097721436944 pbc="F F F"
Tm       0.00000000       0.00000000       0.00000000       0.00000000       0.00000000     -22.69044685
Tm       0.00000000       0.00000000       1.41454545       0.00000000       0.00000000      22.69044685
2
Properties=species:S:1:pos:R:3:forces:R:3 energy=-60.17652759045231 pbc="F F F"
Tm       0.00000000       0.00000000       0.00000000       0.00000000       0.00000000     -17.93065453
Tm       0.00000000       0.00000000       1.47333333       0.00000000       0.00000000      17.93065453
2
Properties=species:S:1:pos:R:3:forces:R:3 energy=-61.1248418770617 pbc="F F F"
Tm       0.00000000       0.00000000       0.00000000       0.00000000       0.00000000     -14.47974586
Tm       0.00000000       0.00000000       1.53212121       0.00000000       0.00000000      14.47974586
2
Properties=species:S:1:pos:R:3:forces:R:3 energy=-61.88955851344262 pbc="F F F"
Tm       0.00000000       0.00000000       0.00000000       0.00000000       0.00000000     -11.58563900
Tm       0.00000000       0.00000000       1.59090909       0.00000000       0.00000000      11.58563900
2
Properties=species:S:1:pos:R:3:forces:R:3 energy=-62.492444149521454 pbc="F F F"
Tm       0.00000000       0.00000000       0.00000000       0.00000000       0.00000000      -8.99320126
Tm       0.00000000       0.00000000       1.64969697       0.00000000       0.00000000       8.99320126
2
Properties=species:S:1:pos:R:3:forces:R:3 energy=-62.95995369499619 pbc="F F F"
Tm       0.00000000       0.00000000       0.00000000       0.00000000       0.00000000      -7.05831575
Tm       0.00000000       0.00000000       1.70848485       0.00000000       0.00000000       7.05831575
2
Properties=species:S:1:pos:R:3:forces:R:3 energy=-63.33967929711365 pbc="F F F"
Tm       0.00000000       0.00000000       0.00000000       0.00000000       0.00000000      -5.98023796
Tm       0.00000000       0.00000000       1.76727273       0.00000000       0.00000000       5.98023796
2
Properties=species:S:1:pos:R:3:forces:R:3 energy=-63.67071013974777 pbc="F F F"
Tm       0.00000000       0.00000000       0.00000000       0.00000000       0.00000000      -5.28885841
Tm       0.00000000       0.00000000       1.82606061       0.00000000       0.00000000       5.28885841
2
Properties=species:S:1:pos:R:3:forces:R:3 energy=-63.95752083428072 pbc="F F F"
Tm       0.00000000       0.00000000       0.00000000       0.00000000       0.00000000      -4.41196823
Tm       0.00000000       0.00000000       1.88484848       0.00000000       0.00000000       4.41196823
2
Properties=species:S:1:pos:R:3:forces:R:3 energy=-64.1836204285941 pbc="F F F"
Tm       0.00000000       0.00000000       0.00000000       0.00000000       0.00000000      -3.25421000
Tm       0.00000000       0.00000000       1.94363636       0.00000000       0.00000000       3.25421000
2
Properties=species:S:1:pos:R:3:forces:R:3 energy=-64.34153207803341 pbc="F F F"
Tm       0.00000000       0.00000000       0.00000000       0.00000000       0.00000000      -2.16812038
Tm       0.00000000       0.00000000       2.00242424       0.00000000       0.00000000       2.16812038
2
Properties=species:S:1:pos:R:3:forces:R:3 energy=-64.44767803215242 pbc="F F F"
Tm       0.00000000       0.00000000       0.00000000       0.00000000       0.00000000      -1.53592360
Tm       0.00000000       0.00000000       2.06121212       0.00000000       0.00000000       1.53592360
2
Properties=species:S:1:pos:R:3:forces:R:3 energy=-64.53259871924587 pbc="F F F"
Tm       0.00000000       0.00000000       0.00000000       0.00000000       0.00000000      -1.42926025
Tm       0.00000000       0.00000000       2.12000000       0.00000000       0.00000000       1.42926025
2
Properties=species:S:1:pos:R:3:forces:R:3 energy=-64.62233323117066 pbc="F F F"
Tm       0.00000000       0.00000000       0.00000000       0.00000000       0.00000000      -1.66005921
Tm       0.00000000       0.00000000       2.17878788       0.00000000       0.00000000       1.66005921
2
Properties=species:S:1:pos:R:3:forces:R:3 energy=-64.73017955190963 pbc="F F F"
Tm       0.00000000       0.00000000       0.00000000       0.00000000       0.00000000      -2.01633787
Tm       0.00000000       0.00000000       2.23757576       0.00000000       0.00000000       2.01633787
2
Properties=species:S:1:pos:R:3:forces:R:3 energy=-64.85925043641767 pbc="F F F"
Tm       0.00000000       0.00000000       0.00000000       0.00000000       0.00000000      -2.36685824
Tm       0.00000000       0.00000000       2.29636364       0.00000000       0.00000000       2.36685824
2
Properties=species:S:1:pos:R:3:forces:R:3 energy=-65.00704339577116 pbc="F F F"
Tm       0.00000000       0.00000000       0.00000000       0.00000000       0.00000000      -2.64613819
Tm       0.00000000       0.00000000       2.35515152       0.00000000       0.00000000       2.64613819
2
Properties=species:S:1:pos:R:3:forces:R:3 energy=-65.1684619405703 pbc="F F F"
Tm       0.00000000       0.00000000       0.00000000       0.00000000       0.00000000      -2.82842660
Tm       0.00000000       0.00000000       2.41393939       0.00000000       0.00000000       2.82842660
2
Properties=species:S:1:pos:R:3:forces:R:3 energy=-65.33760085925924 pbc="F F F"
Tm       0.00000000       0.00000000       0.00000000       0.00000000       0.00000000      -2.90892935
Tm       0.00000000       0.00000000       2.47272727       0.00000000       0.00000000       2.90892935
2
Properties=species:S:1:pos:R:3:forces:R:3 energy=-65.50848626939577 pbc="F F F"
Tm       0.00000000       0.00000000       0.00000000       0.00000000       0.00000000      -2.88782072
Tm       0.00000000       0.00000000       2.53151515       0.00000000       0.00000000       2.88782072
2
Properties=species:S:1:pos:R:3:forces:R:3 energy=-65.67516718622471 pbc="F F F"
Tm       0.00000000       0.00000000       0.00000000       0.00000000       0.00000000      -2.76644015
Tm       0.00000000       0.00000000       2.59030303       0.00000000       0.00000000       2.76644015
2
Properties=species:S:1:pos:R:3:forces:R:3 energy=-65.83197488091032 pbc="F F F"
Tm       0.00000000       0.00000000       0.00000000       0.00000000       0.00000000      -2.55467987
Tm       0.00000000       0.00000000       2.64909091       0.00000000       0.00000000       2.55467987
2
Properties=species:S:1:pos:R:3:forces:R:3 energy=-65.9742324712485 pbc="F F F"
Tm       0.00000000       0.00000000       0.00000000       0.00000000       0.00000000      -2.27697563
Tm       0.00000000       0.00000000       2.70787879       0.00000000       0.00000000       2.27697563
2
Properties=species:S:1:pos:R:3:forces:R:3 energy=-66.09910172743895 pbc="F F F"
Tm       0.00000000       0.00000000       0.00000000       0.00000000       0.00000000      -1.96949553
Tm       0.00000000       0.00000000       2.76666667       0.00000000       0.00000000       1.96949553
2
Properties=species:S:1:pos:R:3:forces:R:3 energy=-66.20597220605235 pbc="F F F"
Tm       0.00000000       0.00000000       0.00000000       0.00000000       0.00000000      -1.67069900
Tm       0.00000000       0.00000000       2.82545455       0.00000000       0.00000000       1.67069900
2
Properties=species:S:1:pos:R:3:forces:R:3 energy=-66.29631628203073 pbc="F F F"
Tm       0.00000000       0.00000000       0.00000000       0.00000000       0.00000000      -1.41117704
Tm       0.00000000       0.00000000       2.88424242       0.00000000       0.00000000       1.41117704
2
Properties=species:S:1:pos:R:3:forces:R:3 energy=-66.372994876953 pbc="F F F"
Tm       0.00000000       0.00000000       0.00000000       0.00000000       0.00000000      -1.20725906
Tm       0.00000000       0.00000000       2.94303030       0.00000000       0.00000000       1.20725906
2
Properties=species:S:1:pos:R:3:forces:R:3 energy=-66.43937243343022 pbc="F F F"
Tm       0.00000000       0.00000000       0.00000000       0.00000000       0.00000000      -1.05971813
Tm       0.00000000       0.00000000       3.00181818       0.00000000       0.00000000       1.05971813
2
Properties=species:S:1:pos:R:3:forces:R:3 energy=-66.49847007448732 pbc="F F F"
Tm       0.00000000       0.00000000       0.00000000       0.00000000       0.00000000      -0.95662034
Tm       0.00000000       0.00000000       3.06060606       0.00000000       0.00000000       0.95662034
2
Properties=species:S:1:pos:R:3:forces:R:3 energy=-66.5523399773725 pbc="F F F"
Tm       0.00000000       0.00000000       0.00000000       0.00000000       0.00000000      -0.87844026
Tm       0.00000000       0.00000000       3.11939394       0.00000000       0.00000000       0.87844026
2
Properties=species:S:1:pos:R:3:forces:R:3 energy=-66.60182123610004 pbc="F F F"
Tm       0.00000000       0.00000000       0.00000000       0.00000000       0.00000000      -0.80393749
Tm       0.00000000       0.00000000       3.17818182       0.00000000       0.00000000       0.80393749
2
Properties=species:S:1:pos:R:3:forces:R:3 energy=-66.64658563464961 pbc="F F F"
Tm       0.00000000       0.00000000       0.00000000       0.00000000       0.00000000      -0.71530509
Tm       0.00000000       0.00000000       3.23696970       0.00000000       0.00000000       0.71530509
2
Properties=species:S:1:pos:R:3:forces:R:3 energy=-66.68541992189272 pbc="F F F"
Tm       0.00000000       0.00000000       0.00000000       0.00000000       0.00000000      -0.60102350
Tm       0.00000000       0.00000000       3.29575758       0.00000000       0.00000000       0.60102350
2
Properties=species:S:1:pos:R:3:forces:R:3 energy=-66.71663784324684 pbc="F F F"
Tm       0.00000000       0.00000000       0.00000000       0.00000000       0.00000000      -0.45587283
Tm       0.00000000       0.00000000       3.35454545       0.00000000       0.00000000       0.45587283
2
Properties=species:S:1:pos:R:3:forces:R:3 energy=-66.73840051505718 pbc="F F F"
Tm       0.00000000       0.00000000       0.00000000       0.00000000       0.00000000      -0.27937171
Tm       0.00000000       0.00000000       3.41333333       0.00000000       0.00000000       0.27937171
2
Properties=species:S:1:pos:R:3:forces:R:3 energy=-66.74893772455529 pbc="F F F"
Tm       0.00000000       0.00000000       0.00000000       0.00000000       0.00000000      -0.07477050
Tm       0.00000000       0.00000000       3.47212121       0.00000000       0.00000000       0.07477050
2
Properties=species:S:1:pos:R:3:forces:R:3 energy=-66.74679206414858 pbc="F F F"
Tm       0.00000000       0.00000000       0.00000000       0.00000000       0.00000000       0.15021236
Tm       0.00000000       0.00000000       3.53090909       0.00000000       0.00000000      -0.15021236
2
Properties=species:S:1:pos:R:3:forces:R:3 energy=-66.7311393343123 pbc="F F F"
Tm       0.00000000       0.00000000       0.00000000       0.00000000       0.00000000       0.38167518
Tm       0.00000000       0.00000000       3.58969697       0.00000000       0.00000000      -0.38167518
2
Properties=species:S:1:pos:R:3:forces:R:3 energy=-66.70218533229381 pbc="F F F"
Tm       0.00000000       0.00000000       0.00000000       0.00000000       0.00000000       0.59911227
Tm       0.00000000       0.00000000       3.64848485       0.00000000       0.00000000      -0.59911227
2
Properties=species:S:1:pos:R:3:forces:R:3 energy=-66.66144805417906 pbc="F F F"
Tm       0.00000000       0.00000000       0.00000000       0.00000000       0.00000000       0.77863866
Tm       0.00000000       0.00000000       3.70727273       0.00000000       0.00000000      -0.77863866
2
Properties=species:S:1:pos:R:3:forces:R:3 energy=-66.61178830750538 pbc="F F F"
Tm       0.00000000       0.00000000       0.00000000       0.00000000       0.00000000       0.89987934
Tm       0.00000000       0.00000000       3.76606061       0.00000000       0.00000000      -0.89987934
2
Properties=species:S:1:pos:R:3:forces:R:3 energy=-66.55698237330083 pbc="F F F"
Tm       0.00000000       0.00000000       0.00000000       0.00000000       0.00000000       0.95314384
Tm       0.00000000       0.00000000       3.82484848       0.00000000       0.00000000      -0.95314384
2
Properties=species:S:1:pos:R:3:forces:R:3 energy=-66.50098201817119 pbc="F F F"
Tm       0.00000000       0.00000000       0.00000000       0.00000000       0.00000000       0.94232613
Tm       0.00000000       0.00000000       3.88363636       0.00000000       0.00000000      -0.94232613
2
Properties=species:S:1:pos:R:3:forces:R:3 energy=-66.44715915256312 pbc="F F F"
Tm       0.00000000       0.00000000       0.00000000       0.00000000       0.00000000       0.88200217
Tm       0.00000000       0.00000000       3.94242424       0.00000000       0.00000000      -0.88200217
2
Properties=species:S:1:pos:R:3:forces:R:3 energy=-66.39787097428275 pbc="F F F"
Tm       0.00000000       0.00000000       0.00000000       0.00000000       0.00000000       0.79142624
Tm       0.00000000       0.00000000       4.00121212       0.00000000       0.00000000      -0.79142624
2
Properties=species:S:1:pos:R:3:forces:R:3 energy=-66.35433788867982 pbc="F F F"
Tm       0.00000000       0.00000000       0.00000000       0.00000000       0.00000000       0.68907779
Tm       0.00000000       0.00000000       4.06000000       0.00000000       0.00000000      -0.68907779
2
Properties=species:S:1:pos:R:3:forces:R:3 energy=-66.31679609970605 pbc="F F F"
Tm       0.00000000       0.00000000       0.00000000       0.00000000       0.00000000       0.58956295
Tm       0.00000000       0.00000000       4.11878788       0.00000000       0.00000000      -0.58956295
2
Properties=species:S:1:pos:R:3:forces:R:3 energy=-66.28477226495046 pbc="F F F"
Tm       0.00000000       0.00000000       0.00000000       0.00000000       0.00000000       0.50254440
Tm       0.00000000       0.00000000       4.17757576       0.00000000       0.00000000      -0.50254440
2
Properties=species:S:1:pos:R:3:forces:R:3 energy=-66.25735816017816 pbc="F F F"
Tm       0.00000000       0.00000000       0.00000000       0.00000000       0.00000000       0.43306378
Tm       0.00000000       0.00000000       4.23636364       0.00000000       0.00000000      -0.43306378
2
Properties=species:S:1:pos:R:3:forces:R:3 energy=-66.23347771447453 pbc="F F F"
Tm       0.00000000       0.00000000       0.00000000       0.00000000       0.00000000       0.38252869
Tm       0.00000000       0.00000000       4.29515152       0.00000000       0.00000000      -0.38252869
2
Properties=species:S:1:pos:R:3:forces:R:3 energy=-66.21203194973451 pbc="F F F"
Tm       0.00000000       0.00000000       0.00000000       0.00000000       0.00000000       0.35002458
Tm       0.00000000       0.00000000       4.35393939       0.00000000       0.00000000      -0.35002458
2
Properties=species:S:1:pos:R:3:forces:R:3 energy=-66.19201344692296 pbc="F F F"
Tm       0.00000000       0.00000000       0.00000000       0.00000000       0.00000000       0.33356968
Tm       0.00000000       0.00000000       4.41272727       0.00000000       0.00000000      -0.33356968
2
Properties=species:S:1:pos:R:3:forces:R:3 energy=-66.172536844646 pbc="F F F"
Tm       0.00000000       0.00000000       0.00000000       0.00000000       0.00000000       0.33106565
Tm       0.00000000       0.00000000       4.47151515       0.00000000       0.00000000      -0.33106565
2
Properties=species:S:1:pos:R:3:forces:R:3 energy=-66.15284648755245 pbc="F F F"
Tm       0.00000000       0.00000000       0.00000000       0.00000000       0.00000000       0.34066841
Tm       0.00000000       0.00000000       4.53030303       0.00000000       0.00000000      -0.34066841
2
Properties=species:S:1:pos:R:3:forces:R:3 energy=-66.13228589291653 pbc="F F F"
Tm       0.00000000       0.00000000       0.00000000       0.00000000       0.00000000       0.36053741
Tm       0.00000000       0.00000000       4.58909091       0.00000000       0.00000000      -0.36053741
2
Properties=species:S:1:pos:R:3:forces:R:3 energy=-66.11030540220719 pbc="F F F"
Tm       0.00000000       0.00000000       0.00000000       0.00000000       0.00000000       0.38813502
Tm       0.00000000       0.00000000       4.64787879       0.00000000       0.00000000      -0.38813502
2
Properties=species:S:1:pos:R:3:forces:R:3 energy=-66.08656897518853 pbc="F F F"
Tm       0.00000000       0.00000000       0.00000000       0.00000000       0.00000000       0.41948706
Tm       0.00000000       0.00000000       4.70666667       0.00000000       0.00000000      -0.41948706
2
Properties=species:S:1:pos:R:3:forces:R:3 energy=-66.06102287030967 pbc="F F F"
Tm       0.00000000       0.00000000       0.00000000       0.00000000       0.00000000       0.44899255
Tm       0.00000000       0.00000000       4.76545455       0.00000000       0.00000000      -0.44899255
2
Properties=species:S:1:pos:R:3:forces:R:3 energy=-66.0339414194881 pbc="F F F"
Tm       0.00000000       0.00000000       0.00000000       0.00000000       0.00000000       0.47012606
Tm       0.00000000       0.00000000       4.82424242       0.00000000       0.00000000      -0.47012606
2
Properties=species:S:1:pos:R:3:forces:R:3 energy=-66.00602621657407 pbc="F F F"
Tm       0.00000000       0.00000000       0.00000000       0.00000000       0.00000000       0.47694486
Tm       0.00000000       0.00000000       4.88303030       0.00000000       0.00000000      -0.47694486
2
Properties=species:S:1:pos:R:3:forces:R:3 energy=-65.97822300396248 pbc="F F F"
Tm       0.00000000       0.00000000       0.00000000       0.00000000       0.00000000       0.46583983
Tm       0.00000000       0.00000000       4.94181818       0.00000000       0.00000000      -0.46583983
2
Properties=species:S:1:pos:R:3:forces:R:3 energy=-65.95160724751388 pbc="F F F"
Tm       0.00000000       0.00000000       0.00000000       0.00000000       0.00000000       0.43681434
Tm       0.00000000       0.00000000       5.00060606       0.00000000       0.00000000      -0.43681434
2
Properties=species:S:1:pos:R:3:forces:R:3 energy=-65.92713999751341 pbc="F F F"
Tm       0.00000000       0.00000000       0.00000000       0.00000000       0.00000000       0.39359394
Tm       0.00000000       0.00000000       5.05939394       0.00000000       0.00000000      -0.39359394
2
Properties=species:S:1:pos:R:3:forces:R:3 energy=-65.9054847800343 pbc="F F F"
Tm       0.00000000       0.00000000       0.00000000       0.00000000       0.00000000       0.34262657
Tm       0.00000000       0.00000000       5.11818182       0.00000000       0.00000000      -0.34262657
2
Properties=species:S:1:pos:R:3:forces:R:3 energy=-65.88687027575577 pbc="F F F"
Tm       0.00000000       0.00000000       0.00000000       0.00000000       0.00000000       0.29112256
Tm       0.00000000       0.00000000       5.17696970       0.00000000       0.00000000      -0.29112256
2
Properties=species:S:1:pos:R:3:forces:R:3 energy=-65.87115136303889 pbc="F F F"
Tm       0.00000000       0.00000000       0.00000000       0.00000000       0.00000000       0.24478318
Tm       0.00000000       0.00000000       5.23575758       0.00000000       0.00000000      -0.24478318
2
Properties=species:S:1:pos:R:3:forces:R:3 energy=-65.85793881604967 pbc="F F F"
Tm       0.00000000       0.00000000       0.00000000       0.00000000       0.00000000       0.20598894
Tm       0.00000000       0.00000000       5.29454545       0.00000000       0.00000000      -0.20598894
2
Properties=species:S:1:pos:R:3:forces:R:3 energy=-65.84679004120629 pbc="F F F"
Tm       0.00000000       0.00000000       0.00000000       0.00000000       0.00000000       0.17447193
Tm       0.00000000       0.00000000       5.35333333       0.00000000       0.00000000      -0.17447193
2
Properties=species:S:1:pos:R:3:forces:R:3 energy=-65.83723960901239 pbc="F F F"
Tm       0.00000000       0.00000000       0.00000000       0.00000000       0.00000000       0.15260464
Tm       0.00000000       0.00000000       5.41212121       0.00000000       0.00000000      -0.15260464
2
Properties=species:S:1:pos:R:3:forces:R:3 energy=-65.82850932914532 pbc="F F F"
Tm       0.00000000       0.00000000       0.00000000       0.00000000       0.00000000       0.14753024
Tm       0.00000000       0.00000000       5.47090909       0.00000000       0.00000000      -0.14753024
2
Properties=species:S:1:pos:R:3:forces:R:3 energy=-65.8196532121201 pbc="F F F"
Tm       0.00000000       0.00000000       0.00000000       0.00000000       0.00000000       0.15406331
Tm       0.00000000       0.00000000       5.52969697       0.00000000       0.00000000      -0.15406331
2
Properties=species:S:1:pos:R:3:forces:R:3 energy=-65.81057982716352 pbc="F F F"
Tm       0.00000000       0.00000000       0.00000000       0.00000000       0.00000000       0.15212220
Tm       0.00000000       0.00000000       5.58848485       0.00000000       0.00000000      -0.15212220
2
Properties=species:S:1:pos:R:3:forces:R:3 energy=-65.80200651317564 pbc="F F F"
Tm       0.00000000       0.00000000       0.00000000       0.00000000       0.00000000       0.13890786
Tm       0.00000000       0.00000000       5.64727273       0.00000000       0.00000000      -0.13890786
2
Properties=species:S:1:pos:R:3:forces:R:3 energy=-65.79411659895666 pbc="F F F"
Tm       0.00000000       0.00000000       0.00000000       0.00000000       0.00000000       0.13214776
Tm       0.00000000       0.00000000       5.70606061       0.00000000       0.00000000      -0.13214776
2
Properties=species:S:1:pos:R:3:forces:R:3 energy=-65.78618559296923 pbc="F F F"
Tm       0.00000000       0.00000000       0.00000000       0.00000000       0.00000000       0.13752888
Tm       0.00000000       0.00000000       5.76484848       0.00000000       0.00000000      -0.13752888
2
Properties=species:S:1:pos:R:3:forces:R:3 energy=-65.77830540749554 pbc="F F F"
Tm       0.00000000       0.00000000       0.00000000       0.00000000       0.00000000       0.12472195
Tm       0.00000000       0.00000000       5.82363636       0.00000000       0.00000000      -0.12472195
2
Properties=species:S:1:pos:R:3:forces:R:3 energy=-65.7722540985265 pbc="F F F"
Tm       0.00000000       0.00000000       0.00000000       0.00000000       0.00000000       0.07785758
Tm       0.00000000       0.00000000       5.88242424       0.00000000       0.00000000      -0.07785758
2
Properties=species:S:1:pos:R:3:forces:R:3 energy=-65.76922996568032 pbc="F F F"
Tm       0.00000000       0.00000000       0.00000000       0.00000000       0.00000000       0.02708550
Tm       0.00000000       0.00000000       5.94121212       0.00000000       0.00000000      -0.02708550
2
Properties=species:S:1:pos:R:3:forces:R:3 energy=-65.76844771668223 pbc="F F F"
Tm       0.00000000       0.00000000       0.00000000       0.00000000       0.00000000       0.00649951
Tm       0.00000000       0.00000000       6.00000000       0.00000000       0.00000000      -0.00649951
