2
Properties=species:S:1:pos:R:3:forces:R:3 energy=6039905.470942508 pbc="F F F"
U        0.00000000       0.00000000       0.00000000       0.00000000       0.00000000 -742113.31250000
U        0.00000000       0.00000000       0.18000000       0.00000000       0.00000000  742113.31250000
2
Properties=species:S:1:pos:R:3:forces:R:3 energy=5987585.470942508 pbc="F F F"
U        0.00000000       0.00000000       0.00000000       0.00000000       0.00000000 -1166767.87500000
U        0.00000000       0.00000000       0.23878788       0.00000000       0.00000000 1166767.87500000
2
Properties=species:S:1:pos:R:3:forces:R:3 energy=5888715.970942508 pbc="F F F"
U        0.00000000       0.00000000       0.00000000       0.00000000       0.00000000 -2318553.50000000
U        0.00000000       0.00000000       0.29757576       0.00000000       0.00000000 2318553.50000000
2
Properties=species:S:1:pos:R:3:forces:R:3 energy=5700324.470942508 pbc="F F F"
U        0.00000000       0.00000000       0.00000000       0.00000000       0.00000000 -4215827.00000000
U        0.00000000       0.00000000       0.35636364       0.00000000       0.00000000 4215827.00000000
2
Properties=species:S:1:pos:R:3:forces:R:3 energy=5378488.470942508 pbc="F F F"
U        0.00000000       0.00000000       0.00000000       0.00000000       0.00000000 -6845692.50000000
U        0.00000000       0.00000000       0.41515152       0.00000000       0.00000000 6845692.50000000
2
Properties=species:S:1:pos:R:3:forces:R:3 energy=4885505.470942511 pbc="F F F"
U        0.00000000       0.00000000       0.00000000       0.00000000       0.00000000 -9975644.00000000
U        0.00000000       0.00000000       0.47393939       0.00000000       0.00000000 9975644.00000000
2
Properties=species:S:1:pos:R:3:forces:R:3 energy=4206591.970942511 pbc="F F F"
U        0.00000000       0.00000000       0.00000000       0.00000000       0.00000000 -13045577.00000000
U        0.00000000       0.00000000       0.53272727       0.00000000       0.00000000 13045577.00000000
2
Properties=species:S:1:pos:R:3:forces:R:3 energy=3369486.2209425145 pbc="F F F"
U        0.00000000       0.00000000       0.00000000       0.00000000       0.00000000 -15200550.00000000
U        0.00000000       0.00000000       0.59151515       0.00000000       0.00000000 15200550.00000000
2
Properties=species:S:1:pos:R:3:forces:R:3 energy=2454703.9709425177 pbc="F F F"
U        0.00000000       0.00000000       0.00000000       0.00000000       0.00000000 -15567057.00000000
U        0.00000000       0.00000000       0.65030303       0.00000000       0.00000000 15567057.00000000
2
Properties=species:S:1:pos:R:3:forces:R:3 energy=1582745.220942524 pbc="F F F"
U        0.00000000       0.00000000       0.00000000       0.00000000       0.00000000 -13743722.00000000
U        0.00000000       0.00000000       0.70909091       0.00000000       0.00000000 13743722.00000000
2
Properties=species:S:1:pos:R:3:forces:R:3 energy=871341.6584425368 pbc="F F F"
U        0.00000000       0.00000000       0.00000000       0.00000000       0.00000000 -10259280.00000000
U        0.00000000       0.00000000       0.76787879       0.00000000       0.00000000 10259280.00000000
2
Properties=species:S:1:pos:R:3:forces:R:3 energy=395292.43969254947 pbc="F F F"
U        0.00000000       0.00000000       0.00000000       0.00000000       0.00000000 -6104179.50000000
U        0.00000000       0.00000000       0.82666667       0.00000000       0.00000000 6104179.50000000
2
Properties=species:S:1:pos:R:3:forces:R:3 energy=137188.18969257164 pbc="F F F"
U        0.00000000       0.00000000       0.00000000       0.00000000       0.00000000 -2863871.00000000
U        0.00000000       0.00000000       0.88545455       0.00000000       0.00000000 2863871.00000000
2
Properties=species:S:1:pos:R:3:forces:R:3 energy=32452.720942600146 pbc="F F F"
U        0.00000000       0.00000000       0.00000000       0.00000000       0.00000000 -930456.93750000
U        0.00000000       0.00000000       0.94424242       0.00000000       0.00000000  930456.93750000
2
Properties=species:S:1:pos:R:3:forces:R:3 energy=3854.9836379569965 pbc="F F F"
U        0.00000000       0.00000000       0.00000000       0.00000000       0.00000000 -200323.65625000
U        0.00000000       0.00000000       1.00303030       0.00000000       0.00000000  200323.65625000
2
Properties=species:S:1:pos:R:3:forces:R:3 energy=112.55536957506433 pbc="F F F"
U        0.00000000       0.00000000       0.00000000       0.00000000       0.00000000    -491.13269043
U        0.00000000       0.00000000       1.06181818       0.00000000       0.00000000     491.13269043
2
Properties=species:S:1:pos:R:3:forces:R:3 energy=49.06754615842829 pbc="F F F"
U        0.00000000       0.00000000       0.00000000       0.00000000       0.00000000   -1113.59033203
U        0.00000000       0.00000000       1.12060606       0.00000000       0.00000000    1113.59033203
2
Properties=species:S:1:pos:R:3:forces:R:3 energy=7.822352772017644 pbc="F F F"
U        0.00000000       0.00000000       0.00000000       0.00000000       0.00000000    -482.47650146
U        0.00000000       0.00000000       1.17939394       0.00000000       0.00000000     482.47650146
2
Properties=species:S:1:pos:R:3:forces:R:3 energy=-21.62897157049574 pbc="F F F"
U        0.00000000       0.00000000       0.00000000       0.00000000       0.00000000    -499.61532593
U        0.00000000       0.00000000       1.23818182       0.00000000       0.00000000     499.61532593
2
Properties=species:S:1:pos:R:3:forces:R:3 energy=-49.54866441160434 pbc="F F F"
U        0.00000000       0.00000000       0.00000000       0.00000000       0.00000000    -440.91708374
U        0.00000000       0.00000000       1.29696970       0.00000000       0.00000000     440.91708374
2
Properties=species:S:1:pos:R:3:forces:R:3 energy=-72.76434720493344 pbc="F F F"
U        0.00000000       0.00000000       0.00000000       0.00000000       0.00000000    -348.21319580
U        0.00000000       0.00000000       1.35575758       0.00000000       0.00000000     348.21319580
2
Properties=species:S:1:pos:R:3:forces:R:3 energy=-92.07989871882364 pbc="F F F"
U        0.00000000       0.00000000       0.00000000       0.00000000       0.00000000    -311.01174927
U        0.00000000       0.00000000       1.41454545       0.00000000       0.00000000     311.01174927
2
Properties=species:S:1:pos:R:3:forces:R:3 energy=-108.14464146620837 pbc="F F F"
U        0.00000000       0.00000000       0.00000000       0.00000000       0.00000000    -235.25936890
U        0.00000000       0.00000000       1.47333333       0.00000000       0.00000000     235.25936890
2
Properties=species:S:1:pos:R:3:forces:R:3 energy=-120.06254119052586 pbc="F F F"
U        0.00000000       0.00000000       0.00000000       0.00000000       0.00000000    -173.02462769
U        0.00000000       0.00000000       1.53212121       0.00000000       0.00000000     173.02462769
2
Properties=species:S:1:pos:R:3:forces:R:3 energy=-128.7680079648162 pbc="F F F"
U        0.00000000       0.00000000       0.00000000       0.00000000       0.00000000    -125.16153717
U        0.00000000       0.00000000       1.59090909       0.00000000       0.00000000     125.16153717
2
Properties=species:S:1:pos:R:3:forces:R:3 energy=-135.00169578711427 pbc="F F F"
U        0.00000000       0.00000000       0.00000000       0.00000000       0.00000000     -88.83666229
U        0.00000000       0.00000000       1.64969697       0.00000000       0.00000000      88.83666229
2
Properties=species:S:1:pos:R:3:forces:R:3 energy=-139.4428572565892 pbc="F F F"
U        0.00000000       0.00000000       0.00000000       0.00000000       0.00000000     -64.12252808
U        0.00000000       0.00000000       1.70848485       0.00000000       0.00000000      64.12252808
2
Properties=species:S:1:pos:R:3:forces:R:3 energy=-142.74200504637872 pbc="F F F"
U        0.00000000       0.00000000       0.00000000       0.00000000       0.00000000     -49.67189789
U        0.00000000       0.00000000       1.76727273       0.00000000       0.00000000      49.67189789
2
Properties=species:S:1:pos:R:3:forces:R:3 energy=-145.4056088703741 pbc="F F F"
U        0.00000000       0.00000000       0.00000000       0.00000000       0.00000000     -41.21920013
U        0.00000000       0.00000000       1.82606061       0.00000000       0.00000000      41.21920013
2
Properties=species:S:1:pos:R:3:forces:R:3 energy=-147.56202563999423 pbc="F F F"
U        0.00000000       0.00000000       0.00000000       0.00000000       0.00000000     -31.76146698
U        0.00000000       0.00000000       1.88484848       0.00000000       0.00000000      31.76146698
2
Properties=species:S:1:pos:R:3:forces:R:3 energy=-149.12788130962696 pbc="F F F"
U        0.00000000       0.00000000       0.00000000       0.00000000       0.00000000     -21.87879181
U        0.00000000       0.00000000       1.94363636       0.00000000       0.00000000      21.87879181
2
Properties=species:S:1:pos:R:3:forces:R:3 energy=-150.2085225272815 pbc="F F F"
U        0.00000000       0.00000000       0.00000000       0.00000000       0.00000000     -15.46735764
U        0.00000000       0.00000000       2.00242424       0.00000000       0.00000000      15.46735764
2
Properties=species:S:1:pos:R:3:forces:R:3 energy=-150.99382964187689 pbc="F F F"
U        0.00000000       0.00000000       0.00000000       0.00000000       0.00000000     -11.53350639
U        0.00000000       0.00000000       2.06121212       0.00000000       0.00000000      11.53350639
2
Properties=species:S:1:pos:R:3:forces:R:3 energy=-151.58937818009048 pbc="F F F"
U        0.00000000       0.00000000       0.00000000       0.00000000       0.00000000      -8.86469173
U        0.00000000       0.00000000       2.12000000       0.00000000       0.00000000       8.86469173
2
Properties=species:S:1:pos:R:3:forces:R:3 energy=-152.0447133951622 pbc="F F F"
U        0.00000000       0.00000000       0.00000000       0.00000000       0.00000000      -6.65477943
U        0.00000000       0.00000000       2.17878788       0.00000000       0.00000000       6.65477943
2
Properties=species:S:1:pos:R:3:forces:R:3 energy=-152.37384281426972 pbc="F F F"
U        0.00000000       0.00000000       0.00000000       0.00000000       0.00000000      -4.56227207
U        0.00000000       0.00000000       2.23757576       0.00000000       0.00000000       4.56227207
2
Properties=species:S:1:pos:R:3:forces:R:3 energy=-152.58450260228605 pbc="F F F"
U        0.00000000       0.00000000       0.00000000       0.00000000       0.00000000      -2.64137244
U        0.00000000       0.00000000       2.29636364       0.00000000       0.00000000       2.64137244
2
Properties=species:S:1:pos:R:3:forces:R:3 energy=-152.68992208181103 pbc="F F F"
U        0.00000000       0.00000000       0.00000000       0.00000000       0.00000000      -1.00654602
U        0.00000000       0.00000000       2.35515152       0.00000000       0.00000000       1.00654602
2
Properties=species:S:1:pos:R:3:forces:R:3 energy=-152.7130199064992 pbc="F F F"
U        0.00000000       0.00000000       0.00000000       0.00000000       0.00000000       0.10533951
U        0.00000000       0.00000000       2.41393939       0.00000000       0.00000000      -0.10533951
2
Properties=species:S:1:pos:R:3:forces:R:3 energy=-152.69333154495854 pbc="F F F"
U        0.00000000       0.00000000       0.00000000       0.00000000       0.00000000       0.42773956
U        0.00000000       0.00000000       2.47272727       0.00000000       0.00000000      -0.42773956
2
Properties=species:S:1:pos:R:3:forces:R:3 energy=-152.67532104199293 pbc="F F F"
U        0.00000000       0.00000000       0.00000000       0.00000000       0.00000000       0.12536886
U        0.00000000       0.00000000       2.53151515       0.00000000       0.00000000      -0.12536886
2
Properties=species:S:1:pos:R:3:forces:R:3 energy=-152.6788705363943 pbc="F F F"
U        0.00000000       0.00000000       0.00000000       0.00000000       0.00000000      -0.19893019
U        0.00000000       0.00000000       2.59030303       0.00000000       0.00000000       0.19893019
2
Properties=species:S:1:pos:R:3:forces:R:3 energy=-152.69078111226722 pbc="F F F"
U        0.00000000       0.00000000       0.00000000       0.00000000       0.00000000      -0.14114602
U        0.00000000       0.00000000       2.64909091       0.00000000       0.00000000       0.14114602
2
Properties=species:S:1:pos:R:3:forces:R:3 energy=-152.690972120842 pbc="F F F"
U        0.00000000       0.00000000       0.00000000       0.00000000       0.00000000       0.13908355
U        0.00000000       0.00000000       2.70787879       0.00000000       0.00000000      -0.13908355
2
Properties=species:S:1:pos:R:3:forces:R:3 energy=-152.67704784353683 pbc="F F F"
U        0.00000000       0.00000000       0.00000000       0.00000000       0.00000000       0.29769391
U        0.00000000       0.00000000       2.76666667       0.00000000       0.00000000      -0.29769391
2
Properties=species:S:1:pos:R:3:forces:R:3 energy=-152.6597961871981 pbc="F F F"
U        0.00000000       0.00000000       0.00000000       0.00000000       0.00000000       0.27226570
U        0.00000000       0.00000000       2.82545455       0.00000000       0.00000000      -0.27226570
2
Properties=species:S:1:pos:R:3:forces:R:3 energy=-152.64419139034732 pbc="F F F"
U        0.00000000       0.00000000       0.00000000       0.00000000       0.00000000       0.28918737
U        0.00000000       0.00000000       2.88424242       0.00000000       0.00000000      -0.28918737
2
Properties=species:S:1:pos:R:3:forces:R:3 energy=-152.62022358598915 pbc="F F F"
U        0.00000000       0.00000000       0.00000000       0.00000000       0.00000000       0.58335942
U        0.00000000       0.00000000       2.94303030       0.00000000       0.00000000      -0.58335942
2
Properties=species:S:1:pos:R:3:forces:R:3 energy=-152.5691549114628 pbc="F F F"
U        0.00000000       0.00000000       0.00000000       0.00000000       0.00000000       1.20043099
U        0.00000000       0.00000000       3.00181818       0.00000000       0.00000000      -1.20043099
2
Properties=species:S:1:pos:R:3:forces:R:3 energy=-152.47536020204143 pbc="F F F"
U        0.00000000       0.00000000       0.00000000       0.00000000       0.00000000       2.00457215
U        0.00000000       0.00000000       3.06060606       0.00000000       0.00000000      -2.00457215
2
Properties=species:S:1:pos:R:3:forces:R:3 energy=-152.33409388562765 pbc="F F F"
U        0.00000000       0.00000000       0.00000000       0.00000000       0.00000000       2.77630329
U        0.00000000       0.00000000       3.11939394       0.00000000       0.00000000      -2.77630329
2
Properties=species:S:1:pos:R:3:forces:R:3 energy=-152.15400753722878 pbc="F F F"
U        0.00000000       0.00000000       0.00000000       0.00000000       0.00000000       3.29177904
U        0.00000000       0.00000000       3.17818182       0.00000000       0.00000000      -3.29177904
2
Properties=species:S:1:pos:R:3:forces:R:3 energy=-151.95505955156827 pbc="F F F"
U        0.00000000       0.00000000       0.00000000       0.00000000       0.00000000       3.40504146
U        0.00000000       0.00000000       3.23696970       0.00000000       0.00000000      -3.40504146
2
Properties=species:S:1:pos:R:3:forces:R:3 energy=-151.76146542097985 pbc="F F F"
U        0.00000000       0.00000000       0.00000000       0.00000000       0.00000000       3.12530708
U        0.00000000       0.00000000       3.29575758       0.00000000       0.00000000      -3.12530708
2
Properties=species:S:1:pos:R:3:forces:R:3 energy=-151.59226799066846 pbc="F F F"
U        0.00000000       0.00000000       0.00000000       0.00000000       0.00000000       2.60872674
U        0.00000000       0.00000000       3.35454545       0.00000000       0.00000000      -2.60872674
2
Properties=species:S:1:pos:R:3:forces:R:3 energy=-151.4551880209982 pbc="F F F"
U        0.00000000       0.00000000       0.00000000       0.00000000       0.00000000       2.06771708
U        0.00000000       0.00000000       3.41333333       0.00000000       0.00000000      -2.06771708
2
Properties=species:S:1:pos:R:3:forces:R:3 energy=-151.34619698574818 pbc="F F F"
U        0.00000000       0.00000000       0.00000000       0.00000000       0.00000000       1.67432749
U        0.00000000       0.00000000       3.47212121       0.00000000       0.00000000      -1.67432749
2
Properties=species:S:1:pos:R:3:forces:R:3 energy=-151.25385061572345 pbc="F F F"
U        0.00000000       0.00000000       0.00000000       0.00000000       0.00000000       1.50580931
U        0.00000000       0.00000000       3.53090909       0.00000000       0.00000000      -1.50580931
2
Properties=species:S:1:pos:R:3:forces:R:3 energy=-151.1651329104279 pbc="F F F"
U        0.00000000       0.00000000       0.00000000       0.00000000       0.00000000       1.54058754
U        0.00000000       0.00000000       3.58969697       0.00000000       0.00000000      -1.54058754
2
Properties=species:S:1:pos:R:3:forces:R:3 energy=-151.07036961386228 pbc="F F F"
U        0.00000000       0.00000000       0.00000000       0.00000000       0.00000000       1.69467139
U        0.00000000       0.00000000       3.64848485       0.00000000       0.00000000      -1.69467139
2
Properties=species:S:1:pos:R:3:forces:R:3 energy=-150.9653795992437 pbc="F F F"
U        0.00000000       0.00000000       0.00000000       0.00000000       0.00000000       1.87561965
U        0.00000000       0.00000000       3.70727273       0.00000000       0.00000000      -1.87561965
2
Properties=species:S:1:pos:R:3:forces:R:3 energy=-150.85052885892995 pbc="F F F"
U        0.00000000       0.00000000       0.00000000       0.00000000       0.00000000       2.02317381
U        0.00000000       0.00000000       3.76606061       0.00000000       0.00000000      -2.02317381
2
Properties=species:S:1:pos:R:3:forces:R:3 energy=-150.72856369935172 pbc="F F F"
U        0.00000000       0.00000000       0.00000000       0.00000000       0.00000000       2.11709166
U        0.00000000       0.00000000       3.82484848       0.00000000       0.00000000      -2.11709166
2
Properties=species:S:1:pos:R:3:forces:R:3 energy=-150.60259666321986 pbc="F F F"
U        0.00000000       0.00000000       0.00000000       0.00000000       0.00000000       2.16057611
U        0.00000000       0.00000000       3.88363636       0.00000000       0.00000000      -2.16057611
2
Properties=species:S:1:pos:R:3:forces:R:3 energy=-150.47532832177953 pbc="F F F"
U        0.00000000       0.00000000       0.00000000       0.00000000       0.00000000       2.16296649
U        0.00000000       0.00000000       3.94242424       0.00000000       0.00000000      -2.16296649
2
Properties=species:S:1:pos:R:3:forces:R:3 energy=-150.34890987284896 pbc="F F F"
U        0.00000000       0.00000000       0.00000000       0.00000000       0.00000000       2.13346148
U        0.00000000       0.00000000       4.00121212       0.00000000       0.00000000      -2.13346148
2
Properties=species:S:1:pos:R:3:forces:R:3 energy=-150.2249279358832 pbc="F F F"
U        0.00000000       0.00000000       0.00000000       0.00000000       0.00000000       2.08149457
U        0.00000000       0.00000000       4.06000000       0.00000000       0.00000000      -2.08149457
2
Properties=species:S:1:pos:R:3:forces:R:3 energy=-150.10441981393097 pbc="F F F"
U        0.00000000       0.00000000       0.00000000       0.00000000       0.00000000       2.01747656
U        0.00000000       0.00000000       4.11878788       0.00000000       0.00000000      -2.01747656
2
Properties=species:S:1:pos:R:3:forces:R:3 energy=-149.98775140431545 pbc="F F F"
U        0.00000000       0.00000000       0.00000000       0.00000000       0.00000000       1.95204782
U        0.00000000       0.00000000       4.17757576       0.00000000       0.00000000      -1.95204782
2
Properties=species:S:1:pos:R:3:forces:R:3 energy=-149.8747545467425 pbc="F F F"
U        0.00000000       0.00000000       0.00000000       0.00000000       0.00000000       1.89377904
U        0.00000000       0.00000000       4.23636364       0.00000000       0.00000000      -1.89377904
2
Properties=species:S:1:pos:R:3:forces:R:3 energy=-149.7648795953524 pbc="F F F"
U        0.00000000       0.00000000       0.00000000       0.00000000       0.00000000       1.84617209
U        0.00000000       0.00000000       4.29515152       0.00000000       0.00000000      -1.84617209
2
Properties=species:S:1:pos:R:3:forces:R:3 energy=-149.65756164232852 pbc="F F F"
U        0.00000000       0.00000000       0.00000000       0.00000000       0.00000000       1.80554807
U        0.00000000       0.00000000       4.35393939       0.00000000       0.00000000      -1.80554807
2
Properties=species:S:1:pos:R:3:forces:R:3 energy=-149.55266301644448 pbc="F F F"
U        0.00000000       0.00000000       0.00000000       0.00000000       0.00000000       1.76108837
U        0.00000000       0.00000000       4.41272727       0.00000000       0.00000000      -1.76108837
2
Properties=species:S:1:pos:R:3:forces:R:3 energy=-149.45087001791552 pbc="F F F"
U        0.00000000       0.00000000       0.00000000       0.00000000       0.00000000       1.69738388
U        0.00000000       0.00000000       4.47151515       0.00000000       0.00000000      -1.69738388
2
Properties=species:S:1:pos:R:3:forces:R:3 energy=-149.35376921234365 pbc="F F F"
U        0.00000000       0.00000000       0.00000000       0.00000000       0.00000000       1.59875405
U        0.00000000       0.00000000       4.53030303       0.00000000       0.00000000      -1.59875405
2
Properties=species:S:1:pos:R:3:forces:R:3 energy=-149.26380165435063 pbc="F F F"
U        0.00000000       0.00000000       0.00000000       0.00000000       0.00000000       1.45428324
U        0.00000000       0.00000000       4.58909091       0.00000000       0.00000000      -1.45428324
2
Properties=species:S:1:pos:R:3:forces:R:3 energy=-149.18372883629635 pbc="F F F"
U        0.00000000       0.00000000       0.00000000       0.00000000       0.00000000       1.26250672
U        0.00000000       0.00000000       4.64787879       0.00000000       0.00000000      -1.26250672
2
Properties=species:S:1:pos:R:3:forces:R:3 energy=-149.11608336236912 pbc="F F F"
U        0.00000000       0.00000000       0.00000000       0.00000000       0.00000000       1.03414357
U        0.00000000       0.00000000       4.70666667       0.00000000       0.00000000      -1.03414357
2
Properties=species:S:1:pos:R:3:forces:R:3 energy=-149.0624212900963 pbc="F F F"
U        0.00000000       0.00000000       0.00000000       0.00000000       0.00000000       0.79161274
U        0.00000000       0.00000000       4.76545455       0.00000000       0.00000000      -0.79161274
2
Properties=species:S:1:pos:R:3:forces:R:3 energy=-149.02271175660718 pbc="F F F"
U        0.00000000       0.00000000       0.00000000       0.00000000       0.00000000       0.56433493
U        0.00000000       0.00000000       4.82424242       0.00000000       0.00000000      -0.56433493
2
Properties=species:S:1:pos:R:3:forces:R:3 energy=-148.99519967487387 pbc="F F F"
U        0.00000000       0.00000000       0.00000000       0.00000000       0.00000000       0.38107187
U        0.00000000       0.00000000       4.88303030       0.00000000       0.00000000      -0.38107187
2
Properties=species:S:1:pos:R:3:forces:R:3 energy=-148.97664986166512 pbc="F F F"
U        0.00000000       0.00000000       0.00000000       0.00000000       0.00000000       0.26131737
U        0.00000000       0.00000000       4.94181818       0.00000000       0.00000000      -0.26131737
2
Properties=species:S:1:pos:R:3:forces:R:3 energy=-148.96312524845968 pbc="F F F"
U        0.00000000       0.00000000       0.00000000       0.00000000       0.00000000       0.20951858
U        0.00000000       0.00000000       5.00060606       0.00000000       0.00000000      -0.20951858
2
Properties=species:S:1:pos:R:3:forces:R:3 energy=-148.95090240879009 pbc="F F F"
U        0.00000000       0.00000000       0.00000000       0.00000000       0.00000000       0.21415718
U        0.00000000       0.00000000       5.05939394       0.00000000       0.00000000      -0.21415718
2
Properties=species:S:1:pos:R:3:forces:R:3 energy=-148.9372802708953 pbc="F F F"
U        0.00000000       0.00000000       0.00000000       0.00000000       0.00000000       0.25261015
U        0.00000000       0.00000000       5.11818182       0.00000000       0.00000000      -0.25261015
2
Properties=species:S:1:pos:R:3:forces:R:3 energy=-148.92103789881534 pbc="F F F"
U        0.00000000       0.00000000       0.00000000       0.00000000       0.00000000       0.29985502
U        0.00000000       0.00000000       5.17696970       0.00000000       0.00000000      -0.29985502
2
Properties=species:S:1:pos:R:3:forces:R:3 energy=-148.90222085825724 pbc="F F F"
U        0.00000000       0.00000000       0.00000000       0.00000000       0.00000000       0.33745769
U        0.00000000       0.00000000       5.23575758       0.00000000       0.00000000      -0.33745769
2
Properties=species:S:1:pos:R:3:forces:R:3 energy=-148.88168346717825 pbc="F F F"
U        0.00000000       0.00000000       0.00000000       0.00000000       0.00000000       0.35857779
U        0.00000000       0.00000000       5.29454545       0.00000000       0.00000000      -0.35857779
2
Properties=species:S:1:pos:R:3:forces:R:3 energy=-148.86034111987362 pbc="F F F"
U        0.00000000       0.00000000       0.00000000       0.00000000       0.00000000       0.36549589
U        0.00000000       0.00000000       5.35333333       0.00000000       0.00000000      -0.36549589
2
Properties=species:S:1:pos:R:3:forces:R:3 energy=-148.83900243237727 pbc="F F F"
U        0.00000000       0.00000000       0.00000000       0.00000000       0.00000000       0.35727093
U        0.00000000       0.00000000       5.41212121       0.00000000       0.00000000      -0.35727093
2
Properties=species:S:1:pos:R:3:forces:R:3 energy=-148.81890331591808 pbc="F F F"
U        0.00000000       0.00000000       0.00000000       0.00000000       0.00000000       0.32113048
U        0.00000000       0.00000000       5.47090909       0.00000000       0.00000000      -0.32113048
2
Properties=species:S:1:pos:R:3:forces:R:3 energy=-148.80158490027182 pbc="F F F"
U        0.00000000       0.00000000       0.00000000       0.00000000       0.00000000       0.26855215
U        0.00000000       0.00000000       5.52969697       0.00000000       0.00000000      -0.26855215
2
Properties=species:S:1:pos:R:3:forces:R:3 energy=-148.78701671696163 pbc="F F F"
U        0.00000000       0.00000000       0.00000000       0.00000000       0.00000000       0.22923249
U        0.00000000       0.00000000       5.58848485       0.00000000       0.00000000      -0.22923249
2
Properties=species:S:1:pos:R:3:forces:R:3 energy=-148.77460377300045 pbc="F F F"
U        0.00000000       0.00000000       0.00000000       0.00000000       0.00000000       0.19216514
U        0.00000000       0.00000000       5.64727273       0.00000000       0.00000000      -0.19216514
2
Properties=species:S:1:pos:R:3:forces:R:3 energy=-148.76454458786938 pbc="F F F"
U        0.00000000       0.00000000       0.00000000       0.00000000       0.00000000       0.15119982
U        0.00000000       0.00000000       5.70606061       0.00000000       0.00000000      -0.15119982
2
Properties=species:S:1:pos:R:3:forces:R:3 energy=-148.75615272988858 pbc="F F F"
U        0.00000000       0.00000000       0.00000000       0.00000000       0.00000000       0.14332283
U        0.00000000       0.00000000       5.76484848       0.00000000       0.00000000      -0.14332283
2
Properties=species:S:1:pos:R:3:forces:R:3 energy=-148.74680397085942 pbc="F F F"
U        0.00000000       0.00000000       0.00000000       0.00000000       0.00000000       0.17437342
U        0.00000000       0.00000000       5.82363636       0.00000000       0.00000000      -0.17437342
2
Properties=species:S:1:pos:R:3:forces:R:3 energy=-148.73703269310084 pbc="F F F"
U        0.00000000       0.00000000       0.00000000       0.00000000       0.00000000       0.14213957
U        0.00000000       0.00000000       5.88242424       0.00000000       0.00000000      -0.14213957
2
Properties=species:S:1:pos:R:3:forces:R:3 energy=-148.73132538766237 pbc="F F F"
U        0.00000000       0.00000000       0.00000000       0.00000000       0.00000000       0.05081642
U        0.00000000       0.00000000       5.94121212       0.00000000       0.00000000      -0.05081642
2
Properties=species:S:1:pos:R:3:forces:R:3 energy=-148.73006398202085 pbc="F F F"
U        0.00000000       0.00000000       0.00000000       0.00000000       0.00000000       0.00648203
U        0.00000000       0.00000000       6.00000000       0.00000000       0.00000000      -0.00648203
