2
Properties=species:S:1:pos:R:3:forces:R:3 energy=-480777.1388036203 pbc="F F F"
V        0.00000000       0.00000000       0.00000000       0.00000000       0.00000000   76091.00000000
V        0.00000000       0.00000000       0.18000000       0.00000000       0.00000000  -76091.00000000
2
Properties=species:S:1:pos:R:3:forces:R:3 energy=-470091.7950536203 pbc="F F F"
V        0.00000000       0.00000000       0.00000000       0.00000000       0.00000000  304282.78125000
V        0.00000000       0.00000000       0.23878788       0.00000000       0.00000000 -304282.78125000
2
Properties=species:S:1:pos:R:3:forces:R:3 energy=-442516.4513036203 pbc="F F F"
V        0.00000000       0.00000000       0.00000000       0.00000000       0.00000000  656171.75000000
V        0.00000000       0.00000000       0.29757576       0.00000000       0.00000000 -656171.75000000
2
Properties=species:S:1:pos:R:3:forces:R:3 energy=-390724.7950536187 pbc="F F F"
V        0.00000000       0.00000000       0.00000000       0.00000000       0.00000000 1116821.00000000
V        0.00000000       0.00000000       0.35636364       0.00000000       0.00000000 -1116821.00000000
2
Properties=species:S:1:pos:R:3:forces:R:3 energy=-311604.3263036171 pbc="F F F"
V        0.00000000       0.00000000       0.00000000       0.00000000       0.00000000 1553147.37500000
V        0.00000000       0.00000000       0.41515152       0.00000000       0.00000000 -1553147.37500000
2
Properties=species:S:1:pos:R:3:forces:R:3 energy=-213208.59192861713 pbc="F F F"
V        0.00000000       0.00000000       0.00000000       0.00000000       0.00000000 1731050.62500000
V        0.00000000       0.00000000       0.47393939       0.00000000       0.00000000 -1731050.62500000
2
Properties=species:S:1:pos:R:3:forces:R:3 energy=-116976.74036611395 pbc="F F F"
V        0.00000000       0.00000000       0.00000000       0.00000000       0.00000000 1447358.75000000
V        0.00000000       0.00000000       0.53272727       0.00000000       0.00000000 -1447358.75000000
2
Properties=species:S:1:pos:R:3:forces:R:3 energy=-43841.28724111078 pbc="F F F"
V        0.00000000       0.00000000       0.00000000       0.00000000       0.00000000  997334.62500000
V        0.00000000       0.00000000       0.59151515       0.00000000       0.00000000 -997334.62500000
2
Properties=species:S:1:pos:R:3:forces:R:3 energy=-12067.71106922786 pbc="F F F"
V        0.00000000       0.00000000       0.00000000       0.00000000       0.00000000  310953.87500000
V        0.00000000       0.00000000       0.65030303       0.00000000       0.00000000 -310953.87500000
2
Properties=species:S:1:pos:R:3:forces:R:3 energy=-10447.582162966772 pbc="F F F"
V        0.00000000       0.00000000       0.00000000       0.00000000       0.00000000    4181.24023438
V        0.00000000       0.00000000       0.70909091       0.00000000       0.00000000   -4181.24023438
2
Properties=species:S:1:pos:R:3:forces:R:3 energy=-7791.311166857184 pbc="F F F"
V        0.00000000       0.00000000       0.00000000       0.00000000       0.00000000   75371.55468750
V        0.00000000       0.00000000       0.76787879       0.00000000       0.00000000  -75371.55468750
2
Properties=species:S:1:pos:R:3:forces:R:3 energy=-4903.195444175591 pbc="F F F"
V        0.00000000       0.00000000       0.00000000       0.00000000       0.00000000    9630.01367188
V        0.00000000       0.00000000       0.82666667       0.00000000       0.00000000   -9630.01367188
2
Properties=species:S:1:pos:R:3:forces:R:3 energy=-4160.816537890745 pbc="F F F"
V        0.00000000       0.00000000       0.00000000       0.00000000       0.00000000   12915.29589844
V        0.00000000       0.00000000       0.88545455       0.00000000       0.00000000  -12915.29589844
2
Properties=species:S:1:pos:R:3:forces:R:3 energy=-3381.2603854978934 pbc="F F F"
V        0.00000000       0.00000000       0.00000000       0.00000000       0.00000000   14096.08691406
V        0.00000000       0.00000000       0.94424242       0.00000000       0.00000000  -14096.08691406
2
Properties=species:S:1:pos:R:3:forces:R:3 energy=-2526.4654635547854 pbc="F F F"
V        0.00000000       0.00000000       0.00000000       0.00000000       0.00000000   14330.66308594
V        0.00000000       0.00000000       1.00303030       0.00000000       0.00000000  -14330.66308594
2
Properties=species:S:1:pos:R:3:forces:R:3 energy=-1769.3541353395024 pbc="F F F"
V        0.00000000       0.00000000       0.00000000       0.00000000       0.00000000   11089.99902344
V        0.00000000       0.00000000       1.06181818       0.00000000       0.00000000  -11089.99902344
2
Properties=species:S:1:pos:R:3:forces:R:3 energy=-1222.8551117832092 pbc="F F F"
V        0.00000000       0.00000000       0.00000000       0.00000000       0.00000000    7708.25390625
V        0.00000000       0.00000000       1.12060606       0.00000000       0.00000000   -7708.25390625
2
Properties=species:S:1:pos:R:3:forces:R:3 energy=-836.2987151420269 pbc="F F F"
V        0.00000000       0.00000000       0.00000000       0.00000000       0.00000000    5621.41259766
V        0.00000000       0.00000000       1.17939394       0.00000000       0.00000000   -5621.41259766
2
Properties=species:S:1:pos:R:3:forces:R:3 energy=-549.3695767572765 pbc="F F F"
V        0.00000000       0.00000000       0.00000000       0.00000000       0.00000000    4190.80957031
V        0.00000000       0.00000000       1.23818182       0.00000000       0.00000000   -4190.80957031
2
Properties=species:S:1:pos:R:3:forces:R:3 energy=-340.4756861182396 pbc="F F F"
V        0.00000000       0.00000000       0.00000000       0.00000000       0.00000000    2934.77807617
V        0.00000000       0.00000000       1.29696970       0.00000000       0.00000000   -2934.77807617
2
Properties=species:S:1:pos:R:3:forces:R:3 energy=-201.08841772871548 pbc="F F F"
V        0.00000000       0.00000000       0.00000000       0.00000000       0.00000000    1846.95861816
V        0.00000000       0.00000000       1.35575758       0.00000000       0.00000000   -1846.95861816
2
Properties=species:S:1:pos:R:3:forces:R:3 energy=-117.64176205296458 pbc="F F F"
V        0.00000000       0.00000000       0.00000000       0.00000000       0.00000000    1043.46276855
V        0.00000000       0.00000000       1.41454545       0.00000000       0.00000000   -1043.46276855
2
Properties=species:S:1:pos:R:3:forces:R:3 energy=-72.49581886762823 pbc="F F F"
V        0.00000000       0.00000000       0.00000000       0.00000000       0.00000000     541.33056641
V        0.00000000       0.00000000       1.47333333       0.00000000       0.00000000    -541.33056641
2
Properties=species:S:1:pos:R:3:forces:R:3 energy=-48.39841377625808 pbc="F F F"
V        0.00000000       0.00000000       0.00000000       0.00000000       0.00000000     319.71173096
V        0.00000000       0.00000000       1.53212121       0.00000000       0.00000000    -319.71173096
2
Properties=species:S:1:pos:R:3:forces:R:3 energy=-32.177942611272634 pbc="F F F"
V        0.00000000       0.00000000       0.00000000       0.00000000       0.00000000     238.93171692
V        0.00000000       0.00000000       1.59090909       0.00000000       0.00000000    -238.93171692
2
Properties=species:S:1:pos:R:3:forces:R:3 energy=-23.112224033474526 pbc="F F F"
V        0.00000000       0.00000000       0.00000000       0.00000000       0.00000000      77.04868317
V        0.00000000       0.00000000       1.64969697       0.00000000       0.00000000     -77.04868317
2
Properties=species:S:1:pos:R:3:forces:R:3 energy=-21.107080776179153 pbc="F F F"
V        0.00000000       0.00000000       0.00000000       0.00000000       0.00000000       6.12968874
V        0.00000000       0.00000000       1.70848485       0.00000000       0.00000000      -6.12968874
2
Properties=species:S:1:pos:R:3:forces:R:3 energy=-21.2360029695375 pbc="F F F"
V        0.00000000       0.00000000       0.00000000       0.00000000       0.00000000      -4.61783075
V        0.00000000       0.00000000       1.76727273       0.00000000       0.00000000       4.61783075
2
Properties=species:S:1:pos:R:3:forces:R:3 energy=-21.35742727404995 pbc="F F F"
V        0.00000000       0.00000000       0.00000000       0.00000000       0.00000000       0.77543050
V        0.00000000       0.00000000       1.82606061       0.00000000       0.00000000      -0.77543050
2
Properties=species:S:1:pos:R:3:forces:R:3 energy=-21.18713782911675 pbc="F F F"
V        0.00000000       0.00000000       0.00000000       0.00000000       0.00000000       4.51487064
V        0.00000000       0.00000000       1.88484848       0.00000000       0.00000000      -4.51487064
2
Properties=species:S:1:pos:R:3:forces:R:3 energy=-20.87683970171425 pbc="F F F"
V        0.00000000       0.00000000       0.00000000       0.00000000       0.00000000       5.66173792
V        0.00000000       0.00000000       1.94363636       0.00000000       0.00000000      -5.66173792
2
Properties=species:S:1:pos:R:3:forces:R:3 energy=-20.568142581085066 pbc="F F F"
V        0.00000000       0.00000000       0.00000000       0.00000000       0.00000000       4.44040918
V        0.00000000       0.00000000       2.00242424       0.00000000       0.00000000      -4.44040918
2
Properties=species:S:1:pos:R:3:forces:R:3 energy=-20.387380654270174 pbc="F F F"
V        0.00000000       0.00000000       0.00000000       0.00000000       0.00000000       1.63041973
V        0.00000000       0.00000000       2.06121212       0.00000000       0.00000000      -1.63041973
2
Properties=species:S:1:pos:R:3:forces:R:3 energy=-20.36494927670691 pbc="F F F"
V        0.00000000       0.00000000       0.00000000       0.00000000       0.00000000      -0.65962970
V        0.00000000       0.00000000       2.12000000       0.00000000       0.00000000       0.65962970
2
Properties=species:S:1:pos:R:3:forces:R:3 energy=-20.4327152204416 pbc="F F F"
V        0.00000000       0.00000000       0.00000000       0.00000000       0.00000000      -1.28775167
V        0.00000000       0.00000000       2.17878788       0.00000000       0.00000000       1.28775167
2
Properties=species:S:1:pos:R:3:forces:R:3 energy=-20.46373033395502 pbc="F F F"
V        0.00000000       0.00000000       0.00000000       0.00000000       0.00000000       0.70599067
V        0.00000000       0.00000000       2.23757576       0.00000000       0.00000000      -0.70599067
2
Properties=species:S:1:pos:R:3:forces:R:3 energy=-20.315174650501945 pbc="F F F"
V        0.00000000       0.00000000       0.00000000       0.00000000       0.00000000       4.32146788
V        0.00000000       0.00000000       2.29636364       0.00000000       0.00000000      -4.32146788
2
Properties=species:S:1:pos:R:3:forces:R:3 energy=-20.000667822167944 pbc="F F F"
V        0.00000000       0.00000000       0.00000000       0.00000000       0.00000000       5.75666666
V        0.00000000       0.00000000       2.35515152       0.00000000       0.00000000      -5.75666666
2
Properties=species:S:1:pos:R:3:forces:R:3 energy=-19.70844462164257 pbc="F F F"
V        0.00000000       0.00000000       0.00000000       0.00000000       0.00000000       3.75840116
V        0.00000000       0.00000000       2.41393939       0.00000000       0.00000000      -3.75840116
2
Properties=species:S:1:pos:R:3:forces:R:3 energy=-19.57877648422487 pbc="F F F"
V        0.00000000       0.00000000       0.00000000       0.00000000       0.00000000       0.71940690
V        0.00000000       0.00000000       2.47272727       0.00000000       0.00000000      -0.71940690
2
Properties=species:S:1:pos:R:3:forces:R:3 energy=-19.598683251727863 pbc="F F F"
V        0.00000000       0.00000000       0.00000000       0.00000000       0.00000000      -1.10670269
V        0.00000000       0.00000000       2.53151515       0.00000000       0.00000000       1.10670269
2
Properties=species:S:1:pos:R:3:forces:R:3 energy=-19.676771329580355 pbc="F F F"
V        0.00000000       0.00000000       0.00000000       0.00000000       0.00000000      -1.33601761
V        0.00000000       0.00000000       2.59030303       0.00000000       0.00000000       1.33601761
2
Properties=species:S:1:pos:R:3:forces:R:3 energy=-19.74104748647158 pbc="F F F"
V        0.00000000       0.00000000       0.00000000       0.00000000       0.00000000      -0.81231833
V        0.00000000       0.00000000       2.64909091       0.00000000       0.00000000       0.81231833
2
Properties=species:S:1:pos:R:3:forces:R:3 energy=-19.77510863166107 pbc="F F F"
V        0.00000000       0.00000000       0.00000000       0.00000000       0.00000000      -0.40995517
V        0.00000000       0.00000000       2.70787879       0.00000000       0.00000000       0.40995517
2
Properties=species:S:1:pos:R:3:forces:R:3 energy=-19.79756971906969 pbc="F F F"
V        0.00000000       0.00000000       0.00000000       0.00000000       0.00000000      -0.41601214
V        0.00000000       0.00000000       2.76666667       0.00000000       0.00000000       0.41601214
2
Properties=species:S:1:pos:R:3:forces:R:3 energy=-19.828596872647125 pbc="F F F"
V        0.00000000       0.00000000       0.00000000       0.00000000       0.00000000      -0.65271288
V        0.00000000       0.00000000       2.82545455       0.00000000       0.00000000       0.65271288
2
Properties=species:S:1:pos:R:3:forces:R:3 energy=-19.873268206231867 pbc="F F F"
V        0.00000000       0.00000000       0.00000000       0.00000000       0.00000000      -0.84224302
V        0.00000000       0.00000000       2.88424242       0.00000000       0.00000000       0.84224302
2
Properties=species:S:1:pos:R:3:forces:R:3 energy=-19.924078962155008 pbc="F F F"
V        0.00000000       0.00000000       0.00000000       0.00000000       0.00000000      -0.85706222
V        0.00000000       0.00000000       2.94303030       0.00000000       0.00000000       0.85706222
2
Properties=species:S:1:pos:R:3:forces:R:3 energy=-19.97135088718125 pbc="F F F"
V        0.00000000       0.00000000       0.00000000       0.00000000       0.00000000      -0.73590767
V        0.00000000       0.00000000       3.00181818       0.00000000       0.00000000       0.73590767
2
Properties=species:S:1:pos:R:3:forces:R:3 energy=-20.009582670975853 pbc="F F F"
V        0.00000000       0.00000000       0.00000000       0.00000000       0.00000000      -0.56105399
V        0.00000000       0.00000000       3.06060606       0.00000000       0.00000000       0.56105399
2
Properties=species:S:1:pos:R:3:forces:R:3 energy=-20.03718102154413 pbc="F F F"
V        0.00000000       0.00000000       0.00000000       0.00000000       0.00000000      -0.37819767
V        0.00000000       0.00000000       3.11939394       0.00000000       0.00000000       0.37819767
2
Properties=species:S:1:pos:R:3:forces:R:3 energy=-20.054165104411844 pbc="F F F"
V        0.00000000       0.00000000       0.00000000       0.00000000       0.00000000      -0.20107937
V        0.00000000       0.00000000       3.17818182       0.00000000       0.00000000       0.20107937
2
Properties=species:S:1:pos:R:3:forces:R:3 energy=-20.061072457120524 pbc="F F F"
V        0.00000000       0.00000000       0.00000000       0.00000000       0.00000000      -0.03665249
V        0.00000000       0.00000000       3.23696970       0.00000000       0.00000000       0.03665249
2
Properties=species:S:1:pos:R:3:forces:R:3 energy=-20.058830787841952 pbc="F F F"
V        0.00000000       0.00000000       0.00000000       0.00000000       0.00000000       0.10994258
V        0.00000000       0.00000000       3.29575758       0.00000000       0.00000000      -0.10994258
2
Properties=species:S:1:pos:R:3:forces:R:3 energy=-20.04844039271936 pbc="F F F"
V        0.00000000       0.00000000       0.00000000       0.00000000       0.00000000       0.24178252
V        0.00000000       0.00000000       3.35454545       0.00000000       0.00000000      -0.24178252
2
Properties=species:S:1:pos:R:3:forces:R:3 energy=-20.030514378681115 pbc="F F F"
V        0.00000000       0.00000000       0.00000000       0.00000000       0.00000000       0.36772460
V        0.00000000       0.00000000       3.41333333       0.00000000       0.00000000      -0.36772460
2
Properties=species:S:1:pos:R:3:forces:R:3 energy=-20.005226000518714 pbc="F F F"
V        0.00000000       0.00000000       0.00000000       0.00000000       0.00000000       0.49218282
V        0.00000000       0.00000000       3.47212121       0.00000000       0.00000000      -0.49218282
2
Properties=species:S:1:pos:R:3:forces:R:3 energy=-19.97276801765349 pbc="F F F"
V        0.00000000       0.00000000       0.00000000       0.00000000       0.00000000       0.61021215
V        0.00000000       0.00000000       3.53090909       0.00000000       0.00000000      -0.61021215
2
Properties=species:S:1:pos:R:3:forces:R:3 energy=-19.933811512693264 pbc="F F F"
V        0.00000000       0.00000000       0.00000000       0.00000000       0.00000000       0.71144491
V        0.00000000       0.00000000       3.58969697       0.00000000       0.00000000      -0.71144491
2
Properties=species:S:1:pos:R:3:forces:R:3 energy=-19.88962621595515 pbc="F F F"
V        0.00000000       0.00000000       0.00000000       0.00000000       0.00000000       0.78705937
V        0.00000000       0.00000000       3.64848485       0.00000000       0.00000000      -0.78705937
2
Properties=species:S:1:pos:R:3:forces:R:3 energy=-19.841832825743804 pbc="F F F"
V        0.00000000       0.00000000       0.00000000       0.00000000       0.00000000       0.83430547
V        0.00000000       0.00000000       3.70727273       0.00000000       0.00000000      -0.83430547
2
Properties=species:S:1:pos:R:3:forces:R:3 energy=-19.792017682745918 pbc="F F F"
V        0.00000000       0.00000000       0.00000000       0.00000000       0.00000000       0.85684425
V        0.00000000       0.00000000       3.76606061       0.00000000       0.00000000      -0.85684425
2
Properties=species:S:1:pos:R:3:forces:R:3 energy=-19.741421853196137 pbc="F F F"
V        0.00000000       0.00000000       0.00000000       0.00000000       0.00000000       0.86241752
V        0.00000000       0.00000000       3.82484848       0.00000000       0.00000000      -0.86241752
2
Properties=species:S:1:pos:R:3:forces:R:3 energy=-19.69077721410405 pbc="F F F"
V        0.00000000       0.00000000       0.00000000       0.00000000       0.00000000       0.85986537
V        0.00000000       0.00000000       3.88363636       0.00000000       0.00000000      -0.85986537
2
Properties=species:S:1:pos:R:3:forces:R:3 energy=-19.640332994576124 pbc="F F F"
V        0.00000000       0.00000000       0.00000000       0.00000000       0.00000000       0.85660869
V        0.00000000       0.00000000       3.94242424       0.00000000       0.00000000      -0.85660869
2
Properties=species:S:1:pos:R:3:forces:R:3 energy=-19.589985637081668 pbc="F F F"
V        0.00000000       0.00000000       0.00000000       0.00000000       0.00000000       0.85712558
V        0.00000000       0.00000000       4.00121212       0.00000000       0.00000000      -0.85712558
2
Properties=species:S:1:pos:R:3:forces:R:3 energy=-19.539456092176664 pbc="F F F"
V        0.00000000       0.00000000       0.00000000       0.00000000       0.00000000       0.86268455
V        0.00000000       0.00000000       4.06000000       0.00000000       0.00000000      -0.86268455
2
Properties=species:S:1:pos:R:3:forces:R:3 energy=-19.488478785402577 pbc="F F F"
V        0.00000000       0.00000000       0.00000000       0.00000000       0.00000000       0.87210768
V        0.00000000       0.00000000       4.11878788       0.00000000       0.00000000      -0.87210768
2
Properties=species:S:1:pos:R:3:forces:R:3 energy=-19.436891050428034 pbc="F F F"
V        0.00000000       0.00000000       0.00000000       0.00000000       0.00000000       0.88287598
V        0.00000000       0.00000000       4.17757576       0.00000000       0.00000000      -0.88287598
2
Properties=species:S:1:pos:R:3:forces:R:3 energy=-19.38470388468191 pbc="F F F"
V        0.00000000       0.00000000       0.00000000       0.00000000       0.00000000       0.89202183
V        0.00000000       0.00000000       4.23636364       0.00000000       0.00000000      -0.89202183
2
Properties=species:S:1:pos:R:3:forces:R:3 energy=-19.332098137823888 pbc="F F F"
V        0.00000000       0.00000000       0.00000000       0.00000000       0.00000000       0.89661735
V        0.00000000       0.00000000       4.29515152       0.00000000       0.00000000      -0.89661735
2
Properties=species:S:1:pos:R:3:forces:R:3 energy=-19.279424429381073 pbc="F F F"
V        0.00000000       0.00000000       0.00000000       0.00000000       0.00000000       0.89406103
V        0.00000000       0.00000000       4.35393939       0.00000000       0.00000000      -0.89406103
2
Properties=species:S:1:pos:R:3:forces:R:3 energy=-19.227161225091958 pbc="F F F"
V        0.00000000       0.00000000       0.00000000       0.00000000       0.00000000       0.88226420
V        0.00000000       0.00000000       4.41272727       0.00000000       0.00000000      -0.88226420
2
Properties=species:S:1:pos:R:3:forces:R:3 energy=-19.175899641473784 pbc="F F F"
V        0.00000000       0.00000000       0.00000000       0.00000000       0.00000000       0.85986191
V        0.00000000       0.00000000       4.47151515       0.00000000       0.00000000      -0.85986191
2
Properties=species:S:1:pos:R:3:forces:R:3 energy=-19.126280444712958 pbc="F F F"
V        0.00000000       0.00000000       0.00000000       0.00000000       0.00000000       0.82633668
V        0.00000000       0.00000000       4.53030303       0.00000000       0.00000000      -0.82633668
2
Properties=species:S:1:pos:R:3:forces:R:3 energy=-19.078955979720117 pbc="F F F"
V        0.00000000       0.00000000       0.00000000       0.00000000       0.00000000       0.78194922
V        0.00000000       0.00000000       4.58909091       0.00000000       0.00000000      -0.78194922
2
Properties=species:S:1:pos:R:3:forces:R:3 energy=-19.03453860994453 pbc="F F F"
V        0.00000000       0.00000000       0.00000000       0.00000000       0.00000000       0.72759235
V        0.00000000       0.00000000       4.64787879       0.00000000       0.00000000      -0.72759235
2
Properties=species:S:1:pos:R:3:forces:R:3 energy=-18.993579776136894 pbc="F F F"
V        0.00000000       0.00000000       0.00000000       0.00000000       0.00000000       0.66449153
V        0.00000000       0.00000000       4.70666667       0.00000000       0.00000000      -0.66449153
2
Properties=species:S:1:pos:R:3:forces:R:3 energy=-18.956554747063752 pbc="F F F"
V        0.00000000       0.00000000       0.00000000       0.00000000       0.00000000       0.59407121
V        0.00000000       0.00000000       4.76545455       0.00000000       0.00000000      -0.59407121
2
Properties=species:S:1:pos:R:3:forces:R:3 energy=-18.923843542853334 pbc="F F F"
V        0.00000000       0.00000000       0.00000000       0.00000000       0.00000000       0.51789433
V        0.00000000       0.00000000       4.82424242       0.00000000       0.00000000      -0.51789433
2
Properties=species:S:1:pos:R:3:forces:R:3 energy=-18.895740478074366 pbc="F F F"
V        0.00000000       0.00000000       0.00000000       0.00000000       0.00000000       0.43782035
V        0.00000000       0.00000000       4.88303030       0.00000000       0.00000000      -0.43782035
2
Properties=species:S:1:pos:R:3:forces:R:3 energy=-18.872398839122255 pbc="F F F"
V        0.00000000       0.00000000       0.00000000       0.00000000       0.00000000       0.35617971
V        0.00000000       0.00000000       4.94181818       0.00000000       0.00000000      -0.35617971
2
Properties=species:S:1:pos:R:3:forces:R:3 energy=-18.85383089055474 pbc="F F F"
V        0.00000000       0.00000000       0.00000000       0.00000000       0.00000000       0.27602899
V        0.00000000       0.00000000       5.00060606       0.00000000       0.00000000      -0.27602899
2
Properties=species:S:1:pos:R:3:forces:R:3 energy=-18.839843031574006 pbc="F F F"
V        0.00000000       0.00000000       0.00000000       0.00000000       0.00000000       0.20101030
V        0.00000000       0.00000000       5.05939394       0.00000000       0.00000000      -0.20101030
2
Properties=species:S:1:pos:R:3:forces:R:3 energy=-18.83001859821077 pbc="F F F"
V        0.00000000       0.00000000       0.00000000       0.00000000       0.00000000       0.13505198
V        0.00000000       0.00000000       5.11818182       0.00000000       0.00000000      -0.13505198
2
Properties=species:S:1:pos:R:3:forces:R:3 energy=-18.823715960727398 pbc="F F F"
V        0.00000000       0.00000000       0.00000000       0.00000000       0.00000000       0.08174119
V        0.00000000       0.00000000       5.17696970       0.00000000       0.00000000      -0.08174119
2
Properties=species:S:1:pos:R:3:forces:R:3 energy=-18.82010668167792 pbc="F F F"
V        0.00000000       0.00000000       0.00000000       0.00000000       0.00000000       0.04380637
V        0.00000000       0.00000000       5.23575758       0.00000000       0.00000000      -0.04380637
2
Properties=species:S:1:pos:R:3:forces:R:3 energy=-18.81823840297603 pbc="F F F"
V        0.00000000       0.00000000       0.00000000       0.00000000       0.00000000       0.02249152
V        0.00000000       0.00000000       5.29454545       0.00000000       0.00000000      -0.02249152
2
Properties=species:S:1:pos:R:3:forces:R:3 energy=-18.81716647670942 pbc="F F F"
V        0.00000000       0.00000000       0.00000000       0.00000000       0.00000000       0.01601702
V        0.00000000       0.00000000       5.35333333       0.00000000       0.00000000      -0.01601702
2
Properties=species:S:1:pos:R:3:forces:R:3 energy=-18.81620760924581 pbc="F F F"
V        0.00000000       0.00000000       0.00000000       0.00000000       0.00000000       0.01692678
V        0.00000000       0.00000000       5.41212121       0.00000000       0.00000000      -0.01692678
2
Properties=species:S:1:pos:R:3:forces:R:3 energy=-18.81522212665585 pbc="F F F"
V        0.00000000       0.00000000       0.00000000       0.00000000       0.00000000       0.01603955
V        0.00000000       0.00000000       5.47090909       0.00000000       0.00000000      -0.01603955
2
Properties=species:S:1:pos:R:3:forces:R:3 energy=-18.814308797347955 pbc="F F F"
V        0.00000000       0.00000000       0.00000000       0.00000000       0.00000000       0.01611294
V        0.00000000       0.00000000       5.52969697       0.00000000       0.00000000      -0.01611294
2
Properties=species:S:1:pos:R:3:forces:R:3 energy=-18.813152499828956 pbc="F F F"
V        0.00000000       0.00000000       0.00000000       0.00000000       0.00000000       0.02440998
V        0.00000000       0.00000000       5.58848485       0.00000000       0.00000000      -0.02440998
2
Properties=species:S:1:pos:R:3:forces:R:3 energy=-18.81144380614118 pbc="F F F"
V        0.00000000       0.00000000       0.00000000       0.00000000       0.00000000       0.03223109
V        0.00000000       0.00000000       5.64727273       0.00000000       0.00000000      -0.03223109
2
Properties=species:S:1:pos:R:3:forces:R:3 energy=-18.809691502876564 pbc="F F F"
V        0.00000000       0.00000000       0.00000000       0.00000000       0.00000000       0.02364439
V        0.00000000       0.00000000       5.70606061       0.00000000       0.00000000      -0.02364439
2
Properties=species:S:1:pos:R:3:forces:R:3 energy=-18.809068100689135 pbc="F F F"
V        0.00000000       0.00000000       0.00000000       0.00000000       0.00000000      -0.00446299
V        0.00000000       0.00000000       5.76484848       0.00000000       0.00000000       0.00446299
2
Properties=species:S:1:pos:R:3:forces:R:3 energy=-18.810129966932433 pbc="F F F"
V        0.00000000       0.00000000       0.00000000       0.00000000       0.00000000      -0.02804527
V        0.00000000       0.00000000       5.82363636       0.00000000       0.00000000       0.02804527
2
Properties=species:S:1:pos:R:3:forces:R:3 energy=-18.81174728723739 pbc="F F F"
V        0.00000000       0.00000000       0.00000000       0.00000000       0.00000000      -0.02238692
V        0.00000000       0.00000000       5.88242424       0.00000000       0.00000000       0.02238692
2
Properties=species:S:1:pos:R:3:forces:R:3 energy=-18.812450666318398 pbc="F F F"
V        0.00000000       0.00000000       0.00000000       0.00000000       0.00000000      -0.00134895
V        0.00000000       0.00000000       5.94121212       0.00000000       0.00000000       0.00134895
2
Properties=species:S:1:pos:R:3:forces:R:3 energy=-18.812140088589622 pbc="F F F"
V        0.00000000       0.00000000       0.00000000       0.00000000       0.00000000       0.00861282
V        0.00000000       0.00000000       6.00000000       0.00000000       0.00000000      -0.00861282
