2
Properties=species:S:1:pos:R:3:forces:R:3 energy=1095889.4891787148 pbc="F F F"
W        0.00000000       0.00000000       0.00000000       0.00000000       0.00000000 -435996.56250000
W        0.00000000       0.00000000       0.18000000       0.00000000       0.00000000  435996.56250000
2
Properties=species:S:1:pos:R:3:forces:R:3 energy=1068612.6141787148 pbc="F F F"
W        0.00000000       0.00000000       0.00000000       0.00000000       0.00000000 -562541.18750000
W        0.00000000       0.00000000       0.23878788       0.00000000       0.00000000  562541.18750000
2
Properties=species:S:1:pos:R:3:forces:R:3 energy=1023033.3016787148 pbc="F F F"
W        0.00000000       0.00000000       0.00000000       0.00000000       0.00000000 -1038943.81250000
W        0.00000000       0.00000000       0.29757576       0.00000000       0.00000000 1038943.81250000
2
Properties=species:S:1:pos:R:3:forces:R:3 energy=941270.2391787148 pbc="F F F"
W        0.00000000       0.00000000       0.00000000       0.00000000       0.00000000 -1777549.75000000
W        0.00000000       0.00000000       0.35636364       0.00000000       0.00000000 1777549.75000000
2
Properties=species:S:1:pos:R:3:forces:R:3 energy=811785.5516787156 pbc="F F F"
W        0.00000000       0.00000000       0.00000000       0.00000000       0.00000000 -2624531.00000000
W        0.00000000       0.00000000       0.41515152       0.00000000       0.00000000 2624531.00000000
2
Properties=species:S:1:pos:R:3:forces:R:3 energy=636624.2391787163 pbc="F F F"
W        0.00000000       0.00000000       0.00000000       0.00000000       0.00000000 -3267559.75000000
W        0.00000000       0.00000000       0.47393939       0.00000000       0.00000000 3267559.75000000
2
Properties=species:S:1:pos:R:3:forces:R:3 energy=439241.0829287172 pbc="F F F"
W        0.00000000       0.00000000       0.00000000       0.00000000       0.00000000 -3324328.00000000
W        0.00000000       0.00000000       0.53272727       0.00000000       0.00000000 3324328.00000000
2
Properties=species:S:1:pos:R:3:forces:R:3 energy=260463.91105371955 pbc="F F F"
W        0.00000000       0.00000000       0.00000000       0.00000000       0.00000000 -2650896.75000000
W        0.00000000       0.00000000       0.59151515       0.00000000       0.00000000 2650896.75000000
2
Properties=species:S:1:pos:R:3:forces:R:3 energy=134566.0204287219 pbc="F F F"
W        0.00000000       0.00000000       0.00000000       0.00000000       0.00000000 -1631044.87500000
W        0.00000000       0.00000000       0.65030303       0.00000000       0.00000000 1631044.87500000
2
Properties=species:S:1:pos:R:3:forces:R:3 energy=62850.848553725875 pbc="F F F"
W        0.00000000       0.00000000       0.00000000       0.00000000       0.00000000 -886774.37500000
W        0.00000000       0.00000000       0.70909091       0.00000000       0.00000000  886774.37500000
2
Properties=species:S:1:pos:R:3:forces:R:3 energy=24242.633709983005 pbc="F F F"
W        0.00000000       0.00000000       0.00000000       0.00000000       0.00000000 -515901.59375000
W        0.00000000       0.00000000       0.76787879       0.00000000       0.00000000  515901.59375000
2
Properties=species:S:1:pos:R:3:forces:R:3 energy=3398.850262727676 pbc="F F F"
W        0.00000000       0.00000000       0.00000000       0.00000000       0.00000000 -182579.60937500
W        0.00000000       0.00000000       0.82666667       0.00000000       0.00000000  182579.60937500
2
Properties=species:S:1:pos:R:3:forces:R:3 energy=586.4819155739627 pbc="F F F"
W        0.00000000       0.00000000       0.00000000       0.00000000       0.00000000   -5836.41894531
W        0.00000000       0.00000000       0.88545455       0.00000000       0.00000000    5836.41894531
2
Properties=species:S:1:pos:R:3:forces:R:3 energy=313.5185061707254 pbc="F F F"
W        0.00000000       0.00000000       0.00000000       0.00000000       0.00000000   -3365.93432617
W        0.00000000       0.00000000       0.94424242       0.00000000       0.00000000    3365.93432617
2
Properties=species:S:1:pos:R:3:forces:R:3 energy=156.24622836641262 pbc="F F F"
W        0.00000000       0.00000000       0.00000000       0.00000000       0.00000000   -2193.37011719
W        0.00000000       0.00000000       1.00303030       0.00000000       0.00000000    2193.37011719
2
Properties=species:S:1:pos:R:3:forces:R:3 energy=43.19783515491477 pbc="F F F"
W        0.00000000       0.00000000       0.00000000       0.00000000       0.00000000   -1736.92102051
W        0.00000000       0.00000000       1.06181818       0.00000000       0.00000000    1736.92102051
2
Properties=species:S:1:pos:R:3:forces:R:3 energy=-12.518175843347267 pbc="F F F"
W        0.00000000       0.00000000       0.00000000       0.00000000       0.00000000    -609.00671387
W        0.00000000       0.00000000       1.12060606       0.00000000       0.00000000     609.00671387
2
Properties=species:S:1:pos:R:3:forces:R:3 energy=-39.569544492577776 pbc="F F F"
W        0.00000000       0.00000000       0.00000000       0.00000000       0.00000000    -345.74136353
W        0.00000000       0.00000000       1.17939394       0.00000000       0.00000000     345.74136353
2
Properties=species:S:1:pos:R:3:forces:R:3 energy=-53.79063281884627 pbc="F F F"
W        0.00000000       0.00000000       0.00000000       0.00000000       0.00000000    -161.75779724
W        0.00000000       0.00000000       1.23818182       0.00000000       0.00000000     161.75779724
2
Properties=species:S:1:pos:R:3:forces:R:3 energy=-61.018236625869704 pbc="F F F"
W        0.00000000       0.00000000       0.00000000       0.00000000       0.00000000     -97.58390045
W        0.00000000       0.00000000       1.29696970       0.00000000       0.00000000      97.58390045
2
Properties=species:S:1:pos:R:3:forces:R:3 energy=-66.25905070180555 pbc="F F F"
W        0.00000000       0.00000000       0.00000000       0.00000000       0.00000000     -87.08393860
W        0.00000000       0.00000000       1.35575758       0.00000000       0.00000000      87.08393860
2
Properties=species:S:1:pos:R:3:forces:R:3 energy=-71.63393609457691 pbc="F F F"
W        0.00000000       0.00000000       0.00000000       0.00000000       0.00000000     -94.57526398
W        0.00000000       0.00000000       1.41454545       0.00000000       0.00000000      94.57526398
2
Properties=species:S:1:pos:R:3:forces:R:3 energy=-77.13255496984223 pbc="F F F"
W        0.00000000       0.00000000       0.00000000       0.00000000       0.00000000     -93.61121368
W        0.00000000       0.00000000       1.47333333       0.00000000       0.00000000      93.61121368
2
Properties=species:S:1:pos:R:3:forces:R:3 energy=-81.78920144651599 pbc="F F F"
W        0.00000000       0.00000000       0.00000000       0.00000000       0.00000000     -65.03912354
W        0.00000000       0.00000000       1.53212121       0.00000000       0.00000000      65.03912354
2
Properties=species:S:1:pos:R:3:forces:R:3 energy=-84.98578012031335 pbc="F F F"
W        0.00000000       0.00000000       0.00000000       0.00000000       0.00000000     -45.11620712
W        0.00000000       0.00000000       1.59090909       0.00000000       0.00000000      45.11620712
2
Properties=species:S:1:pos:R:3:forces:R:3 energy=-87.19669436149456 pbc="F F F"
W        0.00000000       0.00000000       0.00000000       0.00000000       0.00000000     -30.64995193
W        0.00000000       0.00000000       1.64969697       0.00000000       0.00000000      30.64995193
2
Properties=species:S:1:pos:R:3:forces:R:3 energy=-88.64809467800322 pbc="F F F"
W        0.00000000       0.00000000       0.00000000       0.00000000       0.00000000     -19.27295494
W        0.00000000       0.00000000       1.70848485       0.00000000       0.00000000      19.27295494
2
Properties=species:S:1:pos:R:3:forces:R:3 energy=-89.53477476150773 pbc="F F F"
W        0.00000000       0.00000000       0.00000000       0.00000000       0.00000000     -11.52888203
W        0.00000000       0.00000000       1.76727273       0.00000000       0.00000000      11.52888203
2
Properties=species:S:1:pos:R:3:forces:R:3 energy=-90.07251677753544 pbc="F F F"
W        0.00000000       0.00000000       0.00000000       0.00000000       0.00000000      -7.27578783
W        0.00000000       0.00000000       1.82606061       0.00000000       0.00000000       7.27578783
2
Properties=species:S:1:pos:R:3:forces:R:3 energy=-90.43855156104728 pbc="F F F"
W        0.00000000       0.00000000       0.00000000       0.00000000       0.00000000      -5.46611786
W        0.00000000       0.00000000       1.88484848       0.00000000       0.00000000       5.46611786
2
Properties=species:S:1:pos:R:3:forces:R:3 energy=-90.73283947245382 pbc="F F F"
W        0.00000000       0.00000000       0.00000000       0.00000000       0.00000000      -4.57129669
W        0.00000000       0.00000000       1.94363636       0.00000000       0.00000000       4.57129669
2
Properties=species:S:1:pos:R:3:forces:R:3 energy=-90.97041811648434 pbc="F F F"
W        0.00000000       0.00000000       0.00000000       0.00000000       0.00000000      -3.42810178
W        0.00000000       0.00000000       2.00242424       0.00000000       0.00000000       3.42810178
2
Properties=species:S:1:pos:R:3:forces:R:3 energy=-91.12696512750912 pbc="F F F"
W        0.00000000       0.00000000       0.00000000       0.00000000       0.00000000      -1.84544182
W        0.00000000       0.00000000       2.06121212       0.00000000       0.00000000       1.84544182
2
Properties=species:S:1:pos:R:3:forces:R:3 energy=-91.18512389510684 pbc="F F F"
W        0.00000000       0.00000000       0.00000000       0.00000000       0.00000000      -0.14590271
W        0.00000000       0.00000000       2.12000000       0.00000000       0.00000000       0.14590271
2
Properties=species:S:1:pos:R:3:forces:R:3 energy=-91.14851885051753 pbc="F F F"
W        0.00000000       0.00000000       0.00000000       0.00000000       0.00000000       1.33694041
W        0.00000000       0.00000000       2.17878788       0.00000000       0.00000000      -1.33694041
2
Properties=species:S:1:pos:R:3:forces:R:3 energy=-91.03493492652382 pbc="F F F"
W        0.00000000       0.00000000       0.00000000       0.00000000       0.00000000       2.46858263
W        0.00000000       0.00000000       2.23757576       0.00000000       0.00000000      -2.46858263
2
Properties=species:S:1:pos:R:3:forces:R:3 energy=-90.86461420245638 pbc="F F F"
W        0.00000000       0.00000000       0.00000000       0.00000000       0.00000000       3.27518487
W        0.00000000       0.00000000       2.29636364       0.00000000       0.00000000      -3.27518487
2
Properties=species:S:1:pos:R:3:forces:R:3 energy=-90.65591507727285 pbc="F F F"
W        0.00000000       0.00000000       0.00000000       0.00000000       0.00000000       3.76949453
W        0.00000000       0.00000000       2.35515152       0.00000000       0.00000000      -3.76949453
2
Properties=species:S:1:pos:R:3:forces:R:3 energy=-90.42834147418398 pbc="F F F"
W        0.00000000       0.00000000       0.00000000       0.00000000       0.00000000       3.91397285
W        0.00000000       0.00000000       2.41393939       0.00000000       0.00000000      -3.91397285
2
Properties=species:S:1:pos:R:3:forces:R:3 energy=-90.20170412044233 pbc="F F F"
W        0.00000000       0.00000000       0.00000000       0.00000000       0.00000000       3.75885367
W        0.00000000       0.00000000       2.47272727       0.00000000       0.00000000      -3.75885367
2
Properties=species:S:1:pos:R:3:forces:R:3 energy=-89.98880464223642 pbc="F F F"
W        0.00000000       0.00000000       0.00000000       0.00000000       0.00000000       3.48032713
W        0.00000000       0.00000000       2.53151515       0.00000000       0.00000000      -3.48032713
2
Properties=species:S:1:pos:R:3:forces:R:3 energy=-89.79116401450206 pbc="F F F"
W        0.00000000       0.00000000       0.00000000       0.00000000       0.00000000       3.26830673
W        0.00000000       0.00000000       2.59030303       0.00000000       0.00000000      -3.26830673
2
Properties=species:S:1:pos:R:3:forces:R:3 energy=-89.60031288765637 pbc="F F F"
W        0.00000000       0.00000000       0.00000000       0.00000000       0.00000000       3.26965451
W        0.00000000       0.00000000       2.64909091       0.00000000       0.00000000      -3.26965451
2
Properties=species:S:1:pos:R:3:forces:R:3 energy=-89.40108794140961 pbc="F F F"
W        0.00000000       0.00000000       0.00000000       0.00000000       0.00000000       3.55415154
W        0.00000000       0.00000000       2.70787879       0.00000000       0.00000000      -3.55415154
2
Properties=species:S:1:pos:R:3:forces:R:3 energy=-89.17795438467098 pbc="F F F"
W        0.00000000       0.00000000       0.00000000       0.00000000       0.00000000       4.06427145
W        0.00000000       0.00000000       2.76666667       0.00000000       0.00000000      -4.06427145
2
Properties=species:S:1:pos:R:3:forces:R:3 energy=-88.92154221916425 pbc="F F F"
W        0.00000000       0.00000000       0.00000000       0.00000000       0.00000000       4.65900660
W        0.00000000       0.00000000       2.82545455       0.00000000       0.00000000      -4.65900660
2
Properties=species:S:1:pos:R:3:forces:R:3 energy=-88.63240047874925 pbc="F F F"
W        0.00000000       0.00000000       0.00000000       0.00000000       0.00000000       5.13580942
W        0.00000000       0.00000000       2.88424242       0.00000000       0.00000000      -5.13580942
2
Properties=species:S:1:pos:R:3:forces:R:3 energy=-88.32578814456352 pbc="F F F"
W        0.00000000       0.00000000       0.00000000       0.00000000       0.00000000       5.19908476
W        0.00000000       0.00000000       2.94303030       0.00000000       0.00000000      -5.19908476
2
Properties=species:S:1:pos:R:3:forces:R:3 energy=-88.0349590016523 pbc="F F F"
W        0.00000000       0.00000000       0.00000000       0.00000000       0.00000000       4.56705332
W        0.00000000       0.00000000       3.00181818       0.00000000       0.00000000      -4.56705332
2
Properties=species:S:1:pos:R:3:forces:R:3 energy=-87.80195042539474 pbc="F F F"
W        0.00000000       0.00000000       0.00000000       0.00000000       0.00000000       3.28597689
W        0.00000000       0.00000000       3.06060606       0.00000000       0.00000000      -3.28597689
2
Properties=species:S:1:pos:R:3:forces:R:3 energy=-87.65018630012779 pbc="F F F"
W        0.00000000       0.00000000       0.00000000       0.00000000       0.00000000       1.92707777
W        0.00000000       0.00000000       3.11939394       0.00000000       0.00000000      -1.92707777
2
Properties=species:S:1:pos:R:3:forces:R:3 energy=-87.5640338227786 pbc="F F F"
W        0.00000000       0.00000000       0.00000000       0.00000000       0.00000000       1.12536967
W        0.00000000       0.00000000       3.17818182       0.00000000       0.00000000      -1.12536967
2
Properties=species:S:1:pos:R:3:forces:R:3 energy=-87.5044192338752 pbc="F F F"
W        0.00000000       0.00000000       0.00000000       0.00000000       0.00000000       0.99419439
W        0.00000000       0.00000000       3.23696970       0.00000000       0.00000000      -0.99419439
2
Properties=species:S:1:pos:R:3:forces:R:3 energy=-87.4404799006553 pbc="F F F"
W        0.00000000       0.00000000       0.00000000       0.00000000       0.00000000       1.20213521
W        0.00000000       0.00000000       3.29575758       0.00000000       0.00000000      -1.20213521
2
Properties=species:S:1:pos:R:3:forces:R:3 energy=-87.36419024999431 pbc="F F F"
W        0.00000000       0.00000000       0.00000000       0.00000000       0.00000000       1.35992789
W        0.00000000       0.00000000       3.35454545       0.00000000       0.00000000      -1.35992789
2
Properties=species:S:1:pos:R:3:forces:R:3 energy=-87.28585262231216 pbc="F F F"
W        0.00000000       0.00000000       0.00000000       0.00000000       0.00000000       1.25727952
W        0.00000000       0.00000000       3.41333333       0.00000000       0.00000000      -1.25727952
2
Properties=species:S:1:pos:R:3:forces:R:3 energy=-87.22116142343003 pbc="F F F"
W        0.00000000       0.00000000       0.00000000       0.00000000       0.00000000       0.91456592
W        0.00000000       0.00000000       3.47212121       0.00000000       0.00000000      -0.91456592
2
Properties=species:S:1:pos:R:3:forces:R:3 energy=-87.18002735246954 pbc="F F F"
W        0.00000000       0.00000000       0.00000000       0.00000000       0.00000000       0.48362657
W        0.00000000       0.00000000       3.53090909       0.00000000       0.00000000      -0.48362657
2
Properties=species:S:1:pos:R:3:forces:R:3 energy=-87.16329719461199 pbc="F F F"
W        0.00000000       0.00000000       0.00000000       0.00000000       0.00000000       0.10044752
W        0.00000000       0.00000000       3.58969697       0.00000000       0.00000000      -0.10044752
2
Properties=species:S:1:pos:R:3:forces:R:3 energy=-87.16619481424839 pbc="F F F"
W        0.00000000       0.00000000       0.00000000       0.00000000       0.00000000      -0.18153755
W        0.00000000       0.00000000       3.64848485       0.00000000       0.00000000       0.18153755
2
Properties=species:S:1:pos:R:3:forces:R:3 energy=-87.18273858708427 pbc="F F F"
W        0.00000000       0.00000000       0.00000000       0.00000000       0.00000000      -0.36630893
W        0.00000000       0.00000000       3.70727273       0.00000000       0.00000000       0.36630893
2
Properties=species:S:1:pos:R:3:forces:R:3 energy=-87.20763353591693 pbc="F F F"
W        0.00000000       0.00000000       0.00000000       0.00000000       0.00000000      -0.46712002
W        0.00000000       0.00000000       3.76606061       0.00000000       0.00000000       0.46712002
2
Properties=species:S:1:pos:R:3:forces:R:3 energy=-87.236057698085 pbc="F F F"
W        0.00000000       0.00000000       0.00000000       0.00000000       0.00000000      -0.48599130
W        0.00000000       0.00000000       3.82484848       0.00000000       0.00000000       0.48599130
2
Properties=species:S:1:pos:R:3:forces:R:3 energy=-87.2631509481154 pbc="F F F"
W        0.00000000       0.00000000       0.00000000       0.00000000       0.00000000      -0.42249772
W        0.00000000       0.00000000       3.88363636       0.00000000       0.00000000       0.42249772
2
Properties=species:S:1:pos:R:3:forces:R:3 energy=-87.2843201925114 pbc="F F F"
W        0.00000000       0.00000000       0.00000000       0.00000000       0.00000000      -0.28752121
W        0.00000000       0.00000000       3.94242424       0.00000000       0.00000000       0.28752121
2
Properties=species:S:1:pos:R:3:forces:R:3 energy=-87.29601754898799 pbc="F F F"
W        0.00000000       0.00000000       0.00000000       0.00000000       0.00000000      -0.10495576
W        0.00000000       0.00000000       4.00121212       0.00000000       0.00000000       0.10495576
2
Properties=species:S:1:pos:R:3:forces:R:3 energy=-87.29629731999103 pbc="F F F"
W        0.00000000       0.00000000       0.00000000       0.00000000       0.00000000       0.09645060
W        0.00000000       0.00000000       4.06000000       0.00000000       0.00000000      -0.09645060
2
Properties=species:S:1:pos:R:3:forces:R:3 energy=-87.28481596814666 pbc="F F F"
W        0.00000000       0.00000000       0.00000000       0.00000000       0.00000000       0.29128820
W        0.00000000       0.00000000       4.11878788       0.00000000       0.00000000      -0.29128820
2
Properties=species:S:1:pos:R:3:forces:R:3 energy=-87.26254221194043 pbc="F F F"
W        0.00000000       0.00000000       0.00000000       0.00000000       0.00000000       0.46090978
W        0.00000000       0.00000000       4.17757576       0.00000000       0.00000000      -0.46090978
2
Properties=species:S:1:pos:R:3:forces:R:3 energy=-87.23135266780703 pbc="F F F"
W        0.00000000       0.00000000       0.00000000       0.00000000       0.00000000       0.59326917
W        0.00000000       0.00000000       4.23636364       0.00000000       0.00000000      -0.59326917
2
Properties=species:S:1:pos:R:3:forces:R:3 energy=-87.19364275180132 pbc="F F F"
W        0.00000000       0.00000000       0.00000000       0.00000000       0.00000000       0.68210936
W        0.00000000       0.00000000       4.29515152       0.00000000       0.00000000      -0.68210936
2
Properties=species:S:1:pos:R:3:forces:R:3 energy=-87.15202914509078 pbc="F F F"
W        0.00000000       0.00000000       0.00000000       0.00000000       0.00000000       0.72664440
W        0.00000000       0.00000000       4.35393939       0.00000000       0.00000000      -0.72664440
2
Properties=species:S:1:pos:R:3:forces:R:3 energy=-87.10899882280026 pbc="F F F"
W        0.00000000       0.00000000       0.00000000       0.00000000       0.00000000       0.73126292
W        0.00000000       0.00000000       4.41272727       0.00000000       0.00000000      -0.73126292
2
Properties=species:S:1:pos:R:3:forces:R:3 energy=-87.06666492764214 pbc="F F F"
W        0.00000000       0.00000000       0.00000000       0.00000000       0.00000000       0.70441353
W        0.00000000       0.00000000       4.47151515       0.00000000       0.00000000      -0.70441353
2
Properties=species:S:1:pos:R:3:forces:R:3 energy=-87.02658366761534 pbc="F F F"
W        0.00000000       0.00000000       0.00000000       0.00000000       0.00000000       0.65640235
W        0.00000000       0.00000000       4.53030303       0.00000000       0.00000000      -0.65640235
2
Properties=species:S:1:pos:R:3:forces:R:3 energy=-86.98971617536841 pbc="F F F"
W        0.00000000       0.00000000       0.00000000       0.00000000       0.00000000       0.59674686
W        0.00000000       0.00000000       4.58909091       0.00000000       0.00000000      -0.59674686
2
Properties=species:S:1:pos:R:3:forces:R:3 energy=-86.95652004826259 pbc="F F F"
W        0.00000000       0.00000000       0.00000000       0.00000000       0.00000000       0.53221303
W        0.00000000       0.00000000       4.64787879       0.00000000       0.00000000      -0.53221303
2
Properties=species:S:1:pos:R:3:forces:R:3 energy=-86.92716298884164 pbc="F F F"
W        0.00000000       0.00000000       0.00000000       0.00000000       0.00000000       0.46632549
W        0.00000000       0.00000000       4.70666667       0.00000000       0.00000000      -0.46632549
2
Properties=species:S:1:pos:R:3:forces:R:3 energy=-86.90169064280009 pbc="F F F"
W        0.00000000       0.00000000       0.00000000       0.00000000       0.00000000       0.40028924
W        0.00000000       0.00000000       4.76545455       0.00000000       0.00000000      -0.40028924
2
Properties=species:S:1:pos:R:3:forces:R:3 energy=-86.88009527541331 pbc="F F F"
W        0.00000000       0.00000000       0.00000000       0.00000000       0.00000000       0.33439094
W        0.00000000       0.00000000       4.82424242       0.00000000       0.00000000      -0.33439094
2
Properties=species:S:1:pos:R:3:forces:R:3 energy=-86.86236917888318 pbc="F F F"
W        0.00000000       0.00000000       0.00000000       0.00000000       0.00000000       0.26905125
W        0.00000000       0.00000000       4.88303030       0.00000000       0.00000000      -0.26905125
2
Properties=species:S:1:pos:R:3:forces:R:3 energy=-86.84843600145163 pbc="F F F"
W        0.00000000       0.00000000       0.00000000       0.00000000       0.00000000       0.20504498
W        0.00000000       0.00000000       4.94181818       0.00000000       0.00000000      -0.20504498
2
Properties=species:S:1:pos:R:3:forces:R:3 energy=-86.83821179443625 pbc="F F F"
W        0.00000000       0.00000000       0.00000000       0.00000000       0.00000000       0.14331485
W        0.00000000       0.00000000       5.00060606       0.00000000       0.00000000      -0.14331485
2
Properties=species:S:1:pos:R:3:forces:R:3 energy=-86.83152109126627 pbc="F F F"
W        0.00000000       0.00000000       0.00000000       0.00000000       0.00000000       0.08480105
W        0.00000000       0.00000000       5.05939394       0.00000000       0.00000000      -0.08480105
2
Properties=species:S:1:pos:R:3:forces:R:3 energy=-86.82815030928457 pbc="F F F"
W        0.00000000       0.00000000       0.00000000       0.00000000       0.00000000       0.03086698
W        0.00000000       0.00000000       5.11818182       0.00000000       0.00000000      -0.03086698
2
Properties=species:S:1:pos:R:3:forces:R:3 energy=-86.82775620176494 pbc="F F F"
W        0.00000000       0.00000000       0.00000000       0.00000000       0.00000000      -0.01575571
W        0.00000000       0.00000000       5.17696970       0.00000000       0.00000000       0.01575571
2
Properties=species:S:1:pos:R:3:forces:R:3 energy=-86.8297743075537 pbc="F F F"
W        0.00000000       0.00000000       0.00000000       0.00000000       0.00000000      -0.05042281
W        0.00000000       0.00000000       5.23575758       0.00000000       0.00000000       0.05042281
2
Properties=species:S:1:pos:R:3:forces:R:3 energy=-86.83335029127053 pbc="F F F"
W        0.00000000       0.00000000       0.00000000       0.00000000       0.00000000      -0.06816110
W        0.00000000       0.00000000       5.29454545       0.00000000       0.00000000       0.06816110
2
Properties=species:S:1:pos:R:3:forces:R:3 energy=-86.83744675008025 pbc="F F F"
W        0.00000000       0.00000000       0.00000000       0.00000000       0.00000000      -0.06886612
W        0.00000000       0.00000000       5.35333333       0.00000000       0.00000000       0.06886612
2
Properties=species:S:1:pos:R:3:forces:R:3 energy=-86.8413162361537 pbc="F F F"
W        0.00000000       0.00000000       0.00000000       0.00000000       0.00000000      -0.06309145
W        0.00000000       0.00000000       5.41212121       0.00000000       0.00000000       0.06309145
2
Properties=species:S:1:pos:R:3:forces:R:3 energy=-86.8450200602477 pbc="F F F"
W        0.00000000       0.00000000       0.00000000       0.00000000       0.00000000      -0.06425451
W        0.00000000       0.00000000       5.47090909       0.00000000       0.00000000       0.06425451
2
Properties=species:S:1:pos:R:3:forces:R:3 energy=-86.84881793618263 pbc="F F F"
W        0.00000000       0.00000000       0.00000000       0.00000000       0.00000000      -0.06256032
W        0.00000000       0.00000000       5.52969697       0.00000000       0.00000000       0.06256032
2
Properties=species:S:1:pos:R:3:forces:R:3 energy=-86.85199304933299 pbc="F F F"
W        0.00000000       0.00000000       0.00000000       0.00000000       0.00000000      -0.04322371
W        0.00000000       0.00000000       5.58848485       0.00000000       0.00000000       0.04322371
2
Properties=species:S:1:pos:R:3:forces:R:3 energy=-86.85387440499804 pbc="F F F"
W        0.00000000       0.00000000       0.00000000       0.00000000       0.00000000      -0.02205671
W        0.00000000       0.00000000       5.64727273       0.00000000       0.00000000       0.02205671
2
Properties=species:S:1:pos:R:3:forces:R:3 energy=-86.85479048291926 pbc="F F F"
W        0.00000000       0.00000000       0.00000000       0.00000000       0.00000000      -0.01044863
W        0.00000000       0.00000000       5.70606061       0.00000000       0.00000000       0.01044863
2
Properties=species:S:1:pos:R:3:forces:R:3 energy=-86.85506979293247 pbc="F F F"
W        0.00000000       0.00000000       0.00000000       0.00000000       0.00000000       0.00268747
W        0.00000000       0.00000000       5.76484848       0.00000000       0.00000000      -0.00268747
2
Properties=species:S:1:pos:R:3:forces:R:3 energy=-86.85430845942842 pbc="F F F"
W        0.00000000       0.00000000       0.00000000       0.00000000       0.00000000       0.02276235
W        0.00000000       0.00000000       5.82363636       0.00000000       0.00000000      -0.02276235
2
Properties=species:S:1:pos:R:3:forces:R:3 energy=-86.85275874106324 pbc="F F F"
W        0.00000000       0.00000000       0.00000000       0.00000000       0.00000000       0.02580175
W        0.00000000       0.00000000       5.88242424       0.00000000       0.00000000      -0.02580175
2
Properties=species:S:1:pos:R:3:forces:R:3 energy=-86.8516265977359 pbc="F F F"
W        0.00000000       0.00000000       0.00000000       0.00000000       0.00000000       0.01163377
W        0.00000000       0.00000000       5.94121212       0.00000000       0.00000000      -0.01163377
2
Properties=species:S:1:pos:R:3:forces:R:3 energy=-86.85124824549644 pbc="F F F"
W        0.00000000       0.00000000       0.00000000       0.00000000       0.00000000       0.00385024
W        0.00000000       0.00000000       6.00000000       0.00000000       0.00000000      -0.00385024
