2
Properties=species:S:1:pos:R:3:forces:R:3 energy=1165396.1141787148 pbc="F F F"
W        0.00000000       0.00000000       0.00000000       0.00000000       0.00000000 -1984887.25000000
W        0.00000000       0.00000000       0.10000000       0.00000000       0.00000000 1984887.25000000
2
Properties=species:S:1:pos:R:3:forces:R:3 energy=1105473.1141787148 pbc="F F F"
W        0.00000000       0.00000000       0.00000000       0.00000000       0.00000000 -519228.96875000
W        0.00000000       0.00000000       0.15959596       0.00000000       0.00000000  519228.96875000
2
Properties=species:S:1:pos:R:3:forces:R:3 energy=1078724.2391787148 pbc="F F F"
W        0.00000000       0.00000000       0.00000000       0.00000000       0.00000000 -474959.06250000
W        0.00000000       0.00000000       0.21919192       0.00000000       0.00000000  474959.06250000
2
Properties=species:S:1:pos:R:3:forces:R:3 energy=1040763.0516787148 pbc="F F F"
W        0.00000000       0.00000000       0.00000000       0.00000000       0.00000000 -854288.18750000
W        0.00000000       0.00000000       0.27878788       0.00000000       0.00000000  854288.18750000
2
Properties=species:S:1:pos:R:3:forces:R:3 energy=970990.2391787148 pbc="F F F"
W        0.00000000       0.00000000       0.00000000       0.00000000       0.00000000 -1530177.62500000
W        0.00000000       0.00000000       0.33838384       0.00000000       0.00000000 1530177.62500000
2
Properties=species:S:1:pos:R:3:forces:R:3 energy=854785.9266787156 pbc="F F F"
W        0.00000000       0.00000000       0.00000000       0.00000000       0.00000000 -2381340.75000000
W        0.00000000       0.00000000       0.39797980       0.00000000       0.00000000 2381340.75000000
2
Properties=species:S:1:pos:R:3:forces:R:3 energy=689042.9891787163 pbc="F F F"
W        0.00000000       0.00000000       0.00000000       0.00000000       0.00000000 -3132163.50000000
W        0.00000000       0.00000000       0.45757576       0.00000000       0.00000000 3132163.50000000
2
Properties=species:S:1:pos:R:3:forces:R:3 energy=491476.5516787164 pbc="F F F"
W        0.00000000       0.00000000       0.00000000       0.00000000       0.00000000 -3382585.25000000
W        0.00000000       0.00000000       0.51717172       0.00000000       0.00000000 3382585.25000000
2
Properties=species:S:1:pos:R:3:forces:R:3 energy=301259.80167871795 pbc="F F F"
W        0.00000000       0.00000000       0.00000000       0.00000000       0.00000000 -2876780.25000000
W        0.00000000       0.00000000       0.57676768       0.00000000       0.00000000 2876780.25000000
2
Properties=species:S:1:pos:R:3:forces:R:3 energy=158936.34855372112 pbc="F F F"
W        0.00000000       0.00000000       0.00000000       0.00000000       0.00000000 -1867673.25000000
W        0.00000000       0.00000000       0.63636364       0.00000000       0.00000000 1867673.25000000
2
Properties=species:S:1:pos:R:3:forces:R:3 energy=75293.25480372588 pbc="F F F"
W        0.00000000       0.00000000       0.00000000       0.00000000       0.00000000 -1012012.18750000
W        0.00000000       0.00000000       0.69595960       0.00000000       0.00000000 1012012.18750000
2
Properties=species:S:1:pos:R:3:forces:R:3 energy=30971.329022482212 pbc="F F F"
W        0.00000000       0.00000000       0.00000000       0.00000000       0.00000000 -574940.00000000
W        0.00000000       0.00000000       0.75555556       0.00000000       0.00000000  574940.00000000
2
Properties=species:S:1:pos:R:3:forces:R:3 energy=5831.278729522175 pbc="F F F"
W        0.00000000       0.00000000       0.00000000       0.00000000       0.00000000 -245717.96875000
W        0.00000000       0.00000000       0.81515152       0.00000000       0.00000000  245717.96875000
2
Properties=species:S:1:pos:R:3:forces:R:3 energy=645.2773257278368 pbc="F F F"
W        0.00000000       0.00000000       0.00000000       0.00000000       0.00000000   -4818.16015625
W        0.00000000       0.00000000       0.87474747       0.00000000       0.00000000    4818.16015625
2
Properties=species:S:1:pos:R:3:forces:R:3 energy=348.573041079667 pbc="F F F"
W        0.00000000       0.00000000       0.00000000       0.00000000       0.00000000   -3725.53710938
W        0.00000000       0.00000000       0.93434343       0.00000000       0.00000000    3725.53710938
2
Properties=species:S:1:pos:R:3:forces:R:3 energy=176.68516268862473 pbc="F F F"
W        0.00000000       0.00000000       0.00000000       0.00000000       0.00000000   -2305.61889648
W        0.00000000       0.00000000       0.99393939       0.00000000       0.00000000    2305.61889648
2
Properties=species:S:1:pos:R:3:forces:R:3 energy=57.66107672651952 pbc="F F F"
W        0.00000000       0.00000000       0.00000000       0.00000000       0.00000000   -1758.70397949
W        0.00000000       0.00000000       1.05353535       0.00000000       0.00000000    1758.70397949
2
Properties=species:S:1:pos:R:3:forces:R:3 energy=-7.831591377818618 pbc="F F F"
W        0.00000000       0.00000000       0.00000000       0.00000000       0.00000000    -642.58947754
W        0.00000000       0.00000000       1.11313131       0.00000000       0.00000000     642.58947754
2
Properties=species:S:1:pos:R:3:forces:R:3 energy=-37.17378110328053 pbc="F F F"
W        0.00000000       0.00000000       0.00000000       0.00000000       0.00000000    -372.73138428
W        0.00000000       0.00000000       1.17272727       0.00000000       0.00000000     372.73138428
2
Properties=species:S:1:pos:R:3:forces:R:3 energy=-52.80849705485271 pbc="F F F"
W        0.00000000       0.00000000       0.00000000       0.00000000       0.00000000    -173.73136902
W        0.00000000       0.00000000       1.23232323       0.00000000       0.00000000     173.73136902
2
Properties=species:S:1:pos:R:3:forces:R:3 energy=-60.518389224055746 pbc="F F F"
W        0.00000000       0.00000000       0.00000000       0.00000000       0.00000000    -100.43023682
W        0.00000000       0.00000000       1.29191919       0.00000000       0.00000000     100.43023682
2
Properties=species:S:1:pos:R:3:forces:R:3 energy=-65.89041362714003 pbc="F F F"
W        0.00000000       0.00000000       0.00000000       0.00000000       0.00000000     -86.69583893
W        0.00000000       0.00000000       1.35151515       0.00000000       0.00000000      86.69583893
2
Properties=species:S:1:pos:R:3:forces:R:3 energy=-71.30905359834007 pbc="F F F"
W        0.00000000       0.00000000       0.00000000       0.00000000       0.00000000     -94.60823059
W        0.00000000       0.00000000       1.41111111       0.00000000       0.00000000      94.60823059
2
Properties=species:S:1:pos:R:3:forces:R:3 energy=-76.8856067371582 pbc="F F F"
W        0.00000000       0.00000000       0.00000000       0.00000000       0.00000000     -94.41222382
W        0.00000000       0.00000000       1.47070707       0.00000000       0.00000000      94.41222382
2
Properties=species:S:1:pos:R:3:forces:R:3 energy=-81.67025919448531 pbc="F F F"
W        0.00000000       0.00000000       0.00000000       0.00000000       0.00000000     -65.81140900
W        0.00000000       0.00000000       1.53030303       0.00000000       0.00000000      65.81140900
2
Properties=species:S:1:pos:R:3:forces:R:3 energy=-84.9400571636393 pbc="F F F"
W        0.00000000       0.00000000       0.00000000       0.00000000       0.00000000     -45.39743805
W        0.00000000       0.00000000       1.58989899       0.00000000       0.00000000      45.39743805
2
Properties=species:S:1:pos:R:3:forces:R:3 energy=-87.19050692411362 pbc="F F F"
W        0.00000000       0.00000000       0.00000000       0.00000000       0.00000000     -30.69436073
W        0.00000000       0.00000000       1.64949495       0.00000000       0.00000000      30.69436073
2
Properties=species:S:1:pos:R:3:forces:R:3 energy=-88.65975238730329 pbc="F F F"
W        0.00000000       0.00000000       0.00000000       0.00000000       0.00000000     -19.17355919
W        0.00000000       0.00000000       1.70909091       0.00000000       0.00000000      19.17355919
2
Properties=species:S:1:pos:R:3:forces:R:3 energy=-89.5509719550102 pbc="F F F"
W        0.00000000       0.00000000       0.00000000       0.00000000       0.00000000     -11.38879967
W        0.00000000       0.00000000       1.76868687       0.00000000       0.00000000      11.38879967
2
Properties=species:S:1:pos:R:3:forces:R:3 energy=-90.08856899749466 pbc="F F F"
W        0.00000000       0.00000000       0.00000000       0.00000000       0.00000000      -7.17132521
W        0.00000000       0.00000000       1.82828283       0.00000000       0.00000000       7.17132521
2
Properties=species:S:1:pos:R:3:forces:R:3 energy=-90.45503101601287 pbc="F F F"
W        0.00000000       0.00000000       0.00000000       0.00000000       0.00000000      -5.41138840
W        0.00000000       0.00000000       1.88787879       0.00000000       0.00000000       5.41138840
2
Properties=species:S:1:pos:R:3:forces:R:3 energy=-90.75027259144039 pbc="F F F"
W        0.00000000       0.00000000       0.00000000       0.00000000       0.00000000      -4.51104927
W        0.00000000       0.00000000       1.94747475       0.00000000       0.00000000       4.51104927
2
Properties=species:S:1:pos:R:3:forces:R:3 energy=-90.9860888437503 pbc="F F F"
W        0.00000000       0.00000000       0.00000000       0.00000000       0.00000000      -3.31629992
W        0.00000000       0.00000000       2.00707071       0.00000000       0.00000000       3.31629992
2
Properties=species:S:1:pos:R:3:forces:R:3 energy=-91.13660101716408 pbc="F F F"
W        0.00000000       0.00000000       0.00000000       0.00000000       0.00000000      -1.68659866
W        0.00000000       0.00000000       2.06666667       0.00000000       0.00000000       1.68659866
2
Properties=species:S:1:pos:R:3:forces:R:3 energy=-91.18549776315731 pbc="F F F"
W        0.00000000       0.00000000       0.00000000       0.00000000       0.00000000       0.02666826
W        0.00000000       0.00000000       2.12626263       0.00000000       0.00000000      -0.02666826
2
Properties=species:S:1:pos:R:3:forces:R:3 energy=-91.13850927892163 pbc="F F F"
W        0.00000000       0.00000000       0.00000000       0.00000000       0.00000000       1.49198329
W        0.00000000       0.00000000       2.18585859       0.00000000       0.00000000      -1.49198329
2
Properties=species:S:1:pos:R:3:forces:R:3 energy=-91.014984587267 pbc="F F F"
W        0.00000000       0.00000000       0.00000000       0.00000000       0.00000000       2.59443426
W        0.00000000       0.00000000       2.24545455       0.00000000       0.00000000      -2.59443426
2
Properties=species:S:1:pos:R:3:forces:R:3 energy=-90.83575338771014 pbc="F F F"
W        0.00000000       0.00000000       0.00000000       0.00000000       0.00000000       3.36872935
W        0.00000000       0.00000000       2.30505051       0.00000000       0.00000000      -3.36872935
2
Properties=species:S:1:pos:R:3:forces:R:3 energy=-90.61989146008246 pbc="F F F"
W        0.00000000       0.00000000       0.00000000       0.00000000       0.00000000       3.81701684
W        0.00000000       0.00000000       2.36464646       0.00000000       0.00000000      -3.81701684
2
Properties=species:S:1:pos:R:3:forces:R:3 energy=-90.38805512809257 pbc="F F F"
W        0.00000000       0.00000000       0.00000000       0.00000000       0.00000000       3.90459204
W        0.00000000       0.00000000       2.42424242       0.00000000       0.00000000      -3.90459204
2
Properties=species:S:1:pos:R:3:forces:R:3 energy=-90.16020826204449 pbc="F F F"
W        0.00000000       0.00000000       0.00000000       0.00000000       0.00000000       3.70940924
W        0.00000000       0.00000000       2.48383838       0.00000000       0.00000000      -3.70940924
2
Properties=species:S:1:pos:R:3:forces:R:3 energy=-89.94765033370915 pbc="F F F"
W        0.00000000       0.00000000       0.00000000       0.00000000       0.00000000       3.42654991
W        0.00000000       0.00000000       2.54343434       0.00000000       0.00000000      -3.42654991
2
Properties=species:S:1:pos:R:3:forces:R:3 energy=-89.7497215228784 pbc="F F F"
W        0.00000000       0.00000000       0.00000000       0.00000000       0.00000000       3.24641967
W        0.00000000       0.00000000       2.60303030       0.00000000       0.00000000      -3.24641967
2
Properties=species:S:1:pos:R:3:forces:R:3 energy=-89.55579498957756 pbc="F F F"
W        0.00000000       0.00000000       0.00000000       0.00000000       0.00000000       3.31008101
W        0.00000000       0.00000000       2.66262626       0.00000000       0.00000000      -3.31008101
2
Properties=species:S:1:pos:R:3:forces:R:3 energy=-89.34935110616952 pbc="F F F"
W        0.00000000       0.00000000       0.00000000       0.00000000       0.00000000       3.66238284
W        0.00000000       0.00000000       2.72222222       0.00000000       0.00000000      -3.66238284
2
Properties=species:S:1:pos:R:3:forces:R:3 energy=-89.11522931153763 pbc="F F F"
W        0.00000000       0.00000000       0.00000000       0.00000000       0.00000000       4.21613646
W        0.00000000       0.00000000       2.78181818       0.00000000       0.00000000      -4.21613646
2
Properties=species:S:1:pos:R:3:forces:R:3 energy=-88.84595474676506 pbc="F F F"
W        0.00000000       0.00000000       0.00000000       0.00000000       0.00000000       4.81089401
W        0.00000000       0.00000000       2.84141414       0.00000000       0.00000000      -4.81089401
2
Properties=species:S:1:pos:R:3:forces:R:3 energy=-88.54561031988713 pbc="F F F"
W        0.00000000       0.00000000       0.00000000       0.00000000       0.00000000       5.21051884
W        0.00000000       0.00000000       2.90101010       0.00000000       0.00000000      -5.21051884
2
Properties=species:S:1:pos:R:3:forces:R:3 energy=-88.23525867687081 pbc="F F F"
W        0.00000000       0.00000000       0.00000000       0.00000000       0.00000000       5.09075022
W        0.00000000       0.00000000       2.96060606       0.00000000       0.00000000      -5.09075022
2
Properties=species:S:1:pos:R:3:forces:R:3 energy=-87.95410417886741 pbc="F F F"
W        0.00000000       0.00000000       0.00000000       0.00000000       0.00000000       4.21857643
W        0.00000000       0.00000000       3.02020202       0.00000000       0.00000000      -4.21857643
2
Properties=species:S:1:pos:R:3:forces:R:3 energy=-87.74342114154913 pbc="F F F"
W        0.00000000       0.00000000       0.00000000       0.00000000       0.00000000       2.81379366
W        0.00000000       0.00000000       3.07979798       0.00000000       0.00000000      -2.81379366
2
Properties=species:S:1:pos:R:3:forces:R:3 energy=-87.61531570414671 pbc="F F F"
W        0.00000000       0.00000000       0.00000000       0.00000000       0.00000000       1.57294166
W        0.00000000       0.00000000       3.13939394       0.00000000       0.00000000      -1.57294166
2
Properties=species:S:1:pos:R:3:forces:R:3 energy=-87.54191929507519 pbc="F F F"
W        0.00000000       0.00000000       0.00000000       0.00000000       0.00000000       1.01398516
W        0.00000000       0.00000000       3.19898990       0.00000000       0.00000000      -1.01398516
2
Properties=species:S:1:pos:R:3:forces:R:3 energy=-87.4823437778434 pbc="F F F"
W        0.00000000       0.00000000       0.00000000       0.00000000       0.00000000       1.05398440
W        0.00000000       0.00000000       3.25858586       0.00000000       0.00000000      -1.05398440
2
Properties=species:S:1:pos:R:3:forces:R:3 energy=-87.4125573443241 pbc="F F F"
W        0.00000000       0.00000000       0.00000000       0.00000000       0.00000000       1.28490543
W        0.00000000       0.00000000       3.31818182       0.00000000       0.00000000      -1.28490543
2
Properties=species:S:1:pos:R:3:forces:R:3 energy=-87.33258097597708 pbc="F F F"
W        0.00000000       0.00000000       0.00000000       0.00000000       0.00000000       1.35402930
W        0.00000000       0.00000000       3.37777778       0.00000000       0.00000000      -1.35402930
2
Properties=species:S:1:pos:R:3:forces:R:3 energy=-87.25697329353449 pbc="F F F"
W        0.00000000       0.00000000       0.00000000       0.00000000       0.00000000       1.13874888
W        0.00000000       0.00000000       3.43737374       0.00000000       0.00000000      -1.13874888
2
Properties=species:S:1:pos:R:3:forces:R:3 energy=-87.20066543232696 pbc="F F F"
W        0.00000000       0.00000000       0.00000000       0.00000000       0.00000000       0.73365784
W        0.00000000       0.00000000       3.49696970       0.00000000       0.00000000      -0.73365784
2
Properties=species:S:1:pos:R:3:forces:R:3 energy=-87.16993640622844 pbc="F F F"
W        0.00000000       0.00000000       0.00000000       0.00000000       0.00000000       0.30545652
W        0.00000000       0.00000000       3.55656566       0.00000000       0.00000000      -0.30545652
2
Properties=species:S:1:pos:R:3:forces:R:3 energy=-87.1625430465339 pbc="F F F"
W        0.00000000       0.00000000       0.00000000       0.00000000       0.00000000      -0.03950059
W        0.00000000       0.00000000       3.61616162       0.00000000       0.00000000       0.03950059
2
Properties=species:S:1:pos:R:3:forces:R:3 energy=-87.17251138051813 pbc="F F F"
W        0.00000000       0.00000000       0.00000000       0.00000000       0.00000000      -0.27833384
W        0.00000000       0.00000000       3.67575758       0.00000000       0.00000000       0.27833384
2
Properties=species:S:1:pos:R:3:forces:R:3 energy=-87.19388266890248 pbc="F F F"
W        0.00000000       0.00000000       0.00000000       0.00000000       0.00000000      -0.42456025
W        0.00000000       0.00000000       3.73535354       0.00000000       0.00000000       0.42456025
2
Properties=species:S:1:pos:R:3:forces:R:3 energy=-87.2214610976062 pbc="F F F"
W        0.00000000       0.00000000       0.00000000       0.00000000       0.00000000      -0.48680016
W        0.00000000       0.00000000       3.79494949       0.00000000       0.00000000       0.48680016
2
Properties=species:S:1:pos:R:3:forces:R:3 energy=-87.25021106983365 pbc="F F F"
W        0.00000000       0.00000000       0.00000000       0.00000000       0.00000000      -0.46388543
W        0.00000000       0.00000000       3.85454545       0.00000000       0.00000000       0.46388543
2
Properties=species:S:1:pos:R:3:forces:R:3 energy=-87.27513511675501 pbc="F F F"
W        0.00000000       0.00000000       0.00000000       0.00000000       0.00000000      -0.36010486
W        0.00000000       0.00000000       3.91414141       0.00000000       0.00000000       0.36010486
2
Properties=species:S:1:pos:R:3:forces:R:3 energy=-87.2918919053896 pbc="F F F"
W        0.00000000       0.00000000       0.00000000       0.00000000       0.00000000      -0.19436814
W        0.00000000       0.00000000       3.97373737       0.00000000       0.00000000       0.19436814
2
Properties=species:S:1:pos:R:3:forces:R:3 energy=-87.29764308397601 pbc="F F F"
W        0.00000000       0.00000000       0.00000000       0.00000000       0.00000000       0.00452113
W        0.00000000       0.00000000       4.03333333       0.00000000       0.00000000      -0.00452113
2
Properties=species:S:1:pos:R:3:forces:R:3 energy=-87.29127453916512 pbc="F F F"
W        0.00000000       0.00000000       0.00000000       0.00000000       0.00000000       0.20775495
W        0.00000000       0.00000000       4.09292929       0.00000000       0.00000000      -0.20775495
2
Properties=species:S:1:pos:R:3:forces:R:3 energy=-87.27325143989991 pbc="F F F"
W        0.00000000       0.00000000       0.00000000       0.00000000       0.00000000       0.39262763
W        0.00000000       0.00000000       4.15252525       0.00000000       0.00000000      -0.39262763
2
Properties=species:S:1:pos:R:3:forces:R:3 energy=-87.24515285622842 pbc="F F F"
W        0.00000000       0.00000000       0.00000000       0.00000000       0.00000000       0.54372728
W        0.00000000       0.00000000       4.21212121       0.00000000       0.00000000      -0.54372728
2
Properties=species:S:1:pos:R:3:forces:R:3 energy=-87.20929026185865 pbc="F F F"
W        0.00000000       0.00000000       0.00000000       0.00000000       0.00000000       0.65208119
W        0.00000000       0.00000000       4.27171717       0.00000000       0.00000000      -0.65208119
2
Properties=species:S:1:pos:R:3:forces:R:3 energy=-87.16834136361093 pbc="F F F"
W        0.00000000       0.00000000       0.00000000       0.00000000       0.00000000       0.71457469
W        0.00000000       0.00000000       4.33131313       0.00000000       0.00000000      -0.71457469
2
Properties=species:S:1:pos:R:3:forces:R:3 energy=-87.12498386196991 pbc="F F F"
W        0.00000000       0.00000000       0.00000000       0.00000000       0.00000000       0.73373866
W        0.00000000       0.00000000       4.39090909       0.00000000       0.00000000      -0.73373866
2
Properties=species:S:1:pos:R:3:forces:R:3 energy=-87.0816055467637 pbc="F F F"
W        0.00000000       0.00000000       0.00000000       0.00000000       0.00000000       0.71698213
W        0.00000000       0.00000000       4.45050505       0.00000000       0.00000000      -0.71698213
2
Properties=species:S:1:pos:R:3:forces:R:3 energy=-87.04003727706674 pbc="F F F"
W        0.00000000       0.00000000       0.00000000       0.00000000       0.00000000       0.67465222
W        0.00000000       0.00000000       4.51010101       0.00000000       0.00000000      -0.67465222
2
Properties=species:S:1:pos:R:3:forces:R:3 energy=-87.00148430476983 pbc="F F F"
W        0.00000000       0.00000000       0.00000000       0.00000000       0.00000000       0.61722875
W        0.00000000       0.00000000       4.56969697       0.00000000       0.00000000      -0.61722875
2
Properties=species:S:1:pos:R:3:forces:R:3 energy=-86.96660258674024 pbc="F F F"
W        0.00000000       0.00000000       0.00000000       0.00000000       0.00000000       0.55286819
W        0.00000000       0.00000000       4.62929293       0.00000000       0.00000000      -0.55286819
2
Properties=species:S:1:pos:R:3:forces:R:3 energy=-86.9356361044199 pbc="F F F"
W        0.00000000       0.00000000       0.00000000       0.00000000       0.00000000       0.48629278
W        0.00000000       0.00000000       4.68888889       0.00000000       0.00000000      -0.48629278
2
Properties=species:S:1:pos:R:3:forces:R:3 energy=-86.90864575674871 pbc="F F F"
W        0.00000000       0.00000000       0.00000000       0.00000000       0.00000000       0.41934478
W        0.00000000       0.00000000       4.74848485       0.00000000       0.00000000      -0.41934478
2
Properties=species:S:1:pos:R:3:forces:R:3 energy=-86.88564667738676 pbc="F F F"
W        0.00000000       0.00000000       0.00000000       0.00000000       0.00000000       0.35247961
W        0.00000000       0.00000000       4.80808081       0.00000000       0.00000000      -0.35247961
2
Properties=species:S:1:pos:R:3:forces:R:3 energy=-86.86662352201378 pbc="F F F"
W        0.00000000       0.00000000       0.00000000       0.00000000       0.00000000       0.28601962
W        0.00000000       0.00000000       4.86767677       0.00000000       0.00000000      -0.28601962
2
Properties=species:S:1:pos:R:3:forces:R:3 energy=-86.85153044615443 pbc="F F F"
W        0.00000000       0.00000000       0.00000000       0.00000000       0.00000000       0.22070396
W        0.00000000       0.00000000       4.92727273       0.00000000       0.00000000      -0.22070396
2
Properties=species:S:1:pos:R:3:forces:R:3 energy=-86.84027586460412 pbc="F F F"
W        0.00000000       0.00000000       0.00000000       0.00000000       0.00000000       0.15748858
W        0.00000000       0.00000000       4.98686869       0.00000000       0.00000000      -0.15748858
2
Properties=species:S:1:pos:R:3:forces:R:3 energy=-86.83269955849383 pbc="F F F"
W        0.00000000       0.00000000       0.00000000       0.00000000       0.00000000       0.09734686
W        0.00000000       0.00000000       5.04646465       0.00000000       0.00000000      -0.09734686
2
Properties=species:S:1:pos:R:3:forces:R:3 energy=-86.8285879396227 pbc="F F F"
W        0.00000000       0.00000000       0.00000000       0.00000000       0.00000000       0.04151449
W        0.00000000       0.00000000       5.10606061       0.00000000       0.00000000      -0.04151449
2
Properties=species:S:1:pos:R:3:forces:R:3 energy=-86.8276206431125 pbc="F F F"
W        0.00000000       0.00000000       0.00000000       0.00000000       0.00000000      -0.00754964
W        0.00000000       0.00000000       5.16565657       0.00000000       0.00000000       0.00754964
2
Properties=species:S:1:pos:R:3:forces:R:3 energy=-86.82926372855547 pbc="F F F"
W        0.00000000       0.00000000       0.00000000       0.00000000       0.00000000      -0.04535466
W        0.00000000       0.00000000       5.22525253       0.00000000       0.00000000       0.04535466
2
Properties=species:S:1:pos:R:3:forces:R:3 energy=-86.83269336943793 pbc="F F F"
W        0.00000000       0.00000000       0.00000000       0.00000000       0.00000000      -0.06651752
W        0.00000000       0.00000000       5.28484848       0.00000000       0.00000000       0.06651752
2
Properties=species:S:1:pos:R:3:forces:R:3 energy=-86.83682639051727 pbc="F F F"
W        0.00000000       0.00000000       0.00000000       0.00000000       0.00000000      -0.06956515
W        0.00000000       0.00000000       5.34444444       0.00000000       0.00000000       0.06956515
2
Properties=species:S:1:pos:R:3:forces:R:3 energy=-86.84080090621421 pbc="F F F"
W        0.00000000       0.00000000       0.00000000       0.00000000       0.00000000      -0.06365069
W        0.00000000       0.00000000       5.40404040       0.00000000       0.00000000       0.06365069
2
Properties=species:S:1:pos:R:3:forces:R:3 energy=-86.84455616330868 pbc="F F F"
W        0.00000000       0.00000000       0.00000000       0.00000000       0.00000000      -0.06377899
W        0.00000000       0.00000000       5.46363636       0.00000000       0.00000000       0.06377899
2
Properties=species:S:1:pos:R:3:forces:R:3 energy=-86.84841291394515 pbc="F F F"
W        0.00000000       0.00000000       0.00000000       0.00000000       0.00000000      -0.06362025
W        0.00000000       0.00000000       5.52323232       0.00000000       0.00000000       0.06362025
2
Properties=species:S:1:pos:R:3:forces:R:3 energy=-86.8517459160314 pbc="F F F"
W        0.00000000       0.00000000       0.00000000       0.00000000       0.00000000      -0.04552643
W        0.00000000       0.00000000       5.58282828       0.00000000       0.00000000       0.04552643
2
Properties=species:S:1:pos:R:3:forces:R:3 energy=-86.85376210613806 pbc="F F F"
W        0.00000000       0.00000000       0.00000000       0.00000000       0.00000000      -0.02343894
W        0.00000000       0.00000000       5.64242424       0.00000000       0.00000000       0.02343894
2
Properties=species:S:1:pos:R:3:forces:R:3 energy=-86.85475183683288 pbc="F F F"
W        0.00000000       0.00000000       0.00000000       0.00000000       0.00000000      -0.01107982
W        0.00000000       0.00000000       5.70202020       0.00000000       0.00000000       0.01107982
2
Properties=species:S:1:pos:R:3:forces:R:3 energy=-86.85508178709907 pbc="F F F"
W        0.00000000       0.00000000       0.00000000       0.00000000       0.00000000       0.00162722
W        0.00000000       0.00000000       5.76161616       0.00000000       0.00000000      -0.00162722
2
Properties=species:S:1:pos:R:3:forces:R:3 energy=-86.85436334645212 pbc="F F F"
W        0.00000000       0.00000000       0.00000000       0.00000000       0.00000000       0.02208344
W        0.00000000       0.00000000       5.82121212       0.00000000       0.00000000      -0.02208344
2
Properties=species:S:1:pos:R:3:forces:R:3 energy=-86.85280302727523 pbc="F F F"
W        0.00000000       0.00000000       0.00000000       0.00000000       0.00000000       0.02600679
W        0.00000000       0.00000000       5.88080808       0.00000000       0.00000000      -0.02600679
2
Properties=species:S:1:pos:R:3:forces:R:3 energy=-86.85163732209267 pbc="F F F"
W        0.00000000       0.00000000       0.00000000       0.00000000       0.00000000       0.01185466
W        0.00000000       0.00000000       5.94040404       0.00000000       0.00000000      -0.01185466
2
Properties=species:S:1:pos:R:3:forces:R:3 energy=-86.85124824549644 pbc="F F F"
W        0.00000000       0.00000000       0.00000000       0.00000000       0.00000000       0.00385024
W        0.00000000       0.00000000       6.00000000       0.00000000       0.00000000      -0.00385024
