2
Properties=species:S:1:pos:R:3:forces:R:3 energy=9703.236880613958 pbc="F F F"
Xe       0.00000000       0.00000000       0.00000000       0.00000000       0.00000000 -162139.20312500
Xe       0.00000000       0.00000000       0.18000000       0.00000000       0.00000000  162139.20312500
2
Properties=species:S:1:pos:R:3:forces:R:3 energy=3969.389468504584 pbc="F F F"
Xe       0.00000000       0.00000000       0.00000000       0.00000000       0.00000000  -55115.12500000
Xe       0.00000000       0.00000000       0.23878788       0.00000000       0.00000000   55115.12500000
2
Properties=species:S:1:pos:R:3:forces:R:3 energy=1877.9622224108339 pbc="F F F"
Xe       0.00000000       0.00000000       0.00000000       0.00000000       0.00000000  -21718.08398438
Xe       0.00000000       0.00000000       0.29757576       0.00000000       0.00000000   21718.08398438
2
Properties=species:S:1:pos:R:3:forces:R:3 energy=1031.3435700670839 pbc="F F F"
Xe       0.00000000       0.00000000       0.00000000       0.00000000       0.00000000   -8912.83496094
Xe       0.00000000       0.00000000       0.35636364       0.00000000       0.00000000    8912.83496094
2
Properties=species:S:1:pos:R:3:forces:R:3 energy=697.0874665530429 pbc="F F F"
Xe       0.00000000       0.00000000       0.00000000       0.00000000       0.00000000   -3142.21923828
Xe       0.00000000       0.00000000       0.41515152       0.00000000       0.00000000    3142.21923828
2
Properties=species:S:1:pos:R:3:forces:R:3 energy=608.8781159686893 pbc="F F F"
Xe       0.00000000       0.00000000       0.00000000       0.00000000       0.00000000    -159.22236633
Xe       0.00000000       0.00000000       0.47393939       0.00000000       0.00000000     159.22236633
2
Properties=species:S:1:pos:R:3:forces:R:3 energy=651.6940949741794 pbc="F F F"
Xe       0.00000000       0.00000000       0.00000000       0.00000000       0.00000000    1429.97863770
Xe       0.00000000       0.00000000       0.53272727       0.00000000       0.00000000   -1429.97863770
2
Properties=species:S:1:pos:R:3:forces:R:3 energy=756.2706330664525 pbc="F F F"
Xe       0.00000000       0.00000000       0.00000000       0.00000000       0.00000000    1948.93432617
Xe       0.00000000       0.00000000       0.59151515       0.00000000       0.00000000   -1948.93432617
2
Properties=species:S:1:pos:R:3:forces:R:3 energy=858.6893952829873 pbc="F F F"
Xe       0.00000000       0.00000000       0.00000000       0.00000000       0.00000000    1339.65380859
Xe       0.00000000       0.00000000       0.65030303       0.00000000       0.00000000   -1339.65380859
2
Properties=species:S:1:pos:R:3:forces:R:3 energy=1934.9350007659925 pbc="F F F"
Xe       0.00000000       0.00000000       0.00000000       0.00000000       0.00000000   33554.10156250
Xe       0.00000000       0.00000000       0.70909091       0.00000000       0.00000000  -33554.10156250
2
Properties=species:S:1:pos:R:3:forces:R:3 energy=2559.0154451241046 pbc="F F F"
Xe       0.00000000       0.00000000       0.00000000       0.00000000       0.00000000   -5399.54882812
Xe       0.00000000       0.00000000       0.76787879       0.00000000       0.00000000    5399.54882812
2
Properties=species:S:1:pos:R:3:forces:R:3 energy=2318.520572107324 pbc="F F F"
Xe       0.00000000       0.00000000       0.00000000       0.00000000       0.00000000   -2975.70849609
Xe       0.00000000       0.00000000       0.82666667       0.00000000       0.00000000    2975.70849609
2
Properties=species:S:1:pos:R:3:forces:R:3 energy=2077.7891268407575 pbc="F F F"
Xe       0.00000000       0.00000000       0.00000000       0.00000000       0.00000000   -5644.04882812
Xe       0.00000000       0.00000000       0.88545455       0.00000000       0.00000000    5644.04882812
2
Properties=species:S:1:pos:R:3:forces:R:3 energy=1682.9157138181765 pbc="F F F"
Xe       0.00000000       0.00000000       0.00000000       0.00000000       0.00000000   -7308.61376953
Xe       0.00000000       0.00000000       0.94424242       0.00000000       0.00000000    7308.61376953
2
Properties=species:S:1:pos:R:3:forces:R:3 energy=1262.056949256854 pbc="F F F"
Xe       0.00000000       0.00000000       0.00000000       0.00000000       0.00000000   -6807.32128906
Xe       0.00000000       0.00000000       1.00303030       0.00000000       0.00000000    6807.32128906
2
Properties=species:S:1:pos:R:3:forces:R:3 energy=894.0472447826357 pbc="F F F"
Xe       0.00000000       0.00000000       0.00000000       0.00000000       0.00000000   -5664.69140625
Xe       0.00000000       0.00000000       1.06181818       0.00000000       0.00000000    5664.69140625
2
Properties=species:S:1:pos:R:3:forces:R:3 energy=600.0454749183278 pbc="F F F"
Xe       0.00000000       0.00000000       0.00000000       0.00000000       0.00000000   -4318.13183594
Xe       0.00000000       0.00000000       1.12060606       0.00000000       0.00000000    4318.13183594
2
Properties=species:S:1:pos:R:3:forces:R:3 energy=385.4326821491506 pbc="F F F"
Xe       0.00000000       0.00000000       0.00000000       0.00000000       0.00000000   -3022.04785156
Xe       0.00000000       0.00000000       1.17939394       0.00000000       0.00000000    3022.04785156
2
Properties=species:S:1:pos:R:3:forces:R:3 energy=238.9192699333261 pbc="F F F"
Xe       0.00000000       0.00000000       0.00000000       0.00000000       0.00000000   -2010.46435547
Xe       0.00000000       0.00000000       1.23818182       0.00000000       0.00000000    2010.46435547
2
Properties=species:S:1:pos:R:3:forces:R:3 energy=141.71829675203742 pbc="F F F"
Xe       0.00000000       0.00000000       0.00000000       0.00000000       0.00000000   -1345.65295410
Xe       0.00000000       0.00000000       1.29696970       0.00000000       0.00000000    1345.65295410
2
Properties=species:S:1:pos:R:3:forces:R:3 energy=76.83361546377805 pbc="F F F"
Xe       0.00000000       0.00000000       0.00000000       0.00000000       0.00000000    -885.27056885
Xe       0.00000000       0.00000000       1.35575758       0.00000000       0.00000000     885.27056885
2
Properties=species:S:1:pos:R:3:forces:R:3 energy=35.206098281521655 pbc="F F F"
Xe       0.00000000       0.00000000       0.00000000       0.00000000       0.00000000    -551.53759766
Xe       0.00000000       0.00000000       1.41454545       0.00000000       0.00000000     551.53759766
2
Properties=species:S:1:pos:R:3:forces:R:3 energy=9.558740979163993 pbc="F F F"
Xe       0.00000000       0.00000000       0.00000000       0.00000000       0.00000000    -339.66720581
Xe       0.00000000       0.00000000       1.47333333       0.00000000       0.00000000     339.66720581
2
Properties=species:S:1:pos:R:3:forces:R:3 energy=-6.476284787092995 pbc="F F F"
Xe       0.00000000       0.00000000       0.00000000       0.00000000       0.00000000    -217.09629822
Xe       0.00000000       0.00000000       1.53212121       0.00000000       0.00000000     217.09629822
2
Properties=species:S:1:pos:R:3:forces:R:3 energy=-16.905799670617665 pbc="F F F"
Xe       0.00000000       0.00000000       0.00000000       0.00000000       0.00000000    -143.25311279
Xe       0.00000000       0.00000000       1.59090909       0.00000000       0.00000000     143.25311279
2
Properties=species:S:1:pos:R:3:forces:R:3 energy=-23.844650827711067 pbc="F F F"
Xe       0.00000000       0.00000000       0.00000000       0.00000000       0.00000000     -96.49908447
Xe       0.00000000       0.00000000       1.64969697       0.00000000       0.00000000      96.49908447
2
Properties=species:S:1:pos:R:3:forces:R:3 energy=-28.60023797645084 pbc="F F F"
Xe       0.00000000       0.00000000       0.00000000       0.00000000       0.00000000     -67.57322693
Xe       0.00000000       0.00000000       1.70848485       0.00000000       0.00000000      67.57322693
2
Properties=species:S:1:pos:R:3:forces:R:3 energy=-31.99427356955178 pbc="F F F"
Xe       0.00000000       0.00000000       0.00000000       0.00000000       0.00000000     -49.19798279
Xe       0.00000000       0.00000000       1.76727273       0.00000000       0.00000000      49.19798279
2
Properties=species:S:1:pos:R:3:forces:R:3 energy=-34.50332388686511 pbc="F F F"
Xe       0.00000000       0.00000000       0.00000000       0.00000000       0.00000000     -36.94479752
Xe       0.00000000       0.00000000       1.82606061       0.00000000       0.00000000      36.94479752
2
Properties=species:S:1:pos:R:3:forces:R:3 energy=-36.4122151563922 pbc="F F F"
Xe       0.00000000       0.00000000       0.00000000       0.00000000       0.00000000     -28.50472832
Xe       0.00000000       0.00000000       1.88484848       0.00000000       0.00000000      28.50472832
2
Properties=species:S:1:pos:R:3:forces:R:3 energy=-37.90372855009813 pbc="F F F"
Xe       0.00000000       0.00000000       0.00000000       0.00000000       0.00000000     -22.57662964
Xe       0.00000000       0.00000000       1.94363636       0.00000000       0.00000000      22.57662964
2
Properties=species:S:1:pos:R:3:forces:R:3 energy=-39.09950707816032 pbc="F F F"
Xe       0.00000000       0.00000000       0.00000000       0.00000000       0.00000000     -18.33288765
Xe       0.00000000       0.00000000       2.00242424       0.00000000       0.00000000      18.33288765
2
Properties=species:S:1:pos:R:3:forces:R:3 energy=-40.08144460049663 pbc="F F F"
Xe       0.00000000       0.00000000       0.00000000       0.00000000       0.00000000     -15.22869968
Xe       0.00000000       0.00000000       2.06121212       0.00000000       0.00000000      15.22869968
2
Properties=species:S:1:pos:R:3:forces:R:3 energy=-40.905212740101454 pbc="F F F"
Xe       0.00000000       0.00000000       0.00000000       0.00000000       0.00000000     -12.90339851
Xe       0.00000000       0.00000000       2.12000000       0.00000000       0.00000000      12.90339851
2
Properties=species:S:1:pos:R:3:forces:R:3 energy=-41.6090613935973 pbc="F F F"
Xe       0.00000000       0.00000000       0.00000000       0.00000000       0.00000000     -11.11630917
Xe       0.00000000       0.00000000       2.17878788       0.00000000       0.00000000      11.11630917
2
Properties=species:S:1:pos:R:3:forces:R:3 energy=-42.21960561985916 pbc="F F F"
Xe       0.00000000       0.00000000       0.00000000       0.00000000       0.00000000      -9.70780659
Xe       0.00000000       0.00000000       2.23757576       0.00000000       0.00000000       9.70780659
2
Properties=species:S:1:pos:R:3:forces:R:3 energy=-42.75583108164684 pbc="F F F"
Xe       0.00000000       0.00000000       0.00000000       0.00000000       0.00000000      -8.57444668
Xe       0.00000000       0.00000000       2.29636364       0.00000000       0.00000000       8.57444668
2
Properties=species:S:1:pos:R:3:forces:R:3 energy=-43.23184061654888 pbc="F F F"
Xe       0.00000000       0.00000000       0.00000000       0.00000000       0.00000000      -7.65054417
Xe       0.00000000       0.00000000       2.35515152       0.00000000       0.00000000       7.65054417
2
Properties=species:S:1:pos:R:3:forces:R:3 energy=-43.65860519015503 pbc="F F F"
Xe       0.00000000       0.00000000       0.00000000       0.00000000       0.00000000      -6.89305592
Xe       0.00000000       0.00000000       2.41393939       0.00000000       0.00000000       6.89305592
2
Properties=species:S:1:pos:R:3:forces:R:3 energy=-44.0449404530126 pbc="F F F"
Xe       0.00000000       0.00000000       0.00000000       0.00000000       0.00000000      -6.27036285
Xe       0.00000000       0.00000000       2.47272727       0.00000000       0.00000000       6.27036285
2
Properties=species:S:1:pos:R:3:forces:R:3 energy=-44.39795688123944 pbc="F F F"
Xe       0.00000000       0.00000000       0.00000000       0.00000000       0.00000000      -5.75528526
Xe       0.00000000       0.00000000       2.53151515       0.00000000       0.00000000       5.75528526
2
Properties=species:S:1:pos:R:3:forces:R:3 energy=-44.72322379900286 pbc="F F F"
Xe       0.00000000       0.00000000       0.00000000       0.00000000       0.00000000      -5.32207108
Xe       0.00000000       0.00000000       2.59030303       0.00000000       0.00000000       5.32207108
2
Properties=species:S:1:pos:R:3:forces:R:3 energy=-45.02482660848213 pbc="F F F"
Xe       0.00000000       0.00000000       0.00000000       0.00000000       0.00000000      -4.94621754
Xe       0.00000000       0.00000000       2.64909091       0.00000000       0.00000000       4.94621754
2
Properties=species:S:1:pos:R:3:forces:R:3 energy=-45.30546214779664 pbc="F F F"
Xe       0.00000000       0.00000000       0.00000000       0.00000000       0.00000000      -4.60529566
Xe       0.00000000       0.00000000       2.70787879       0.00000000       0.00000000       4.60529566
2
Properties=species:S:1:pos:R:3:forces:R:3 energy=-45.56660654560511 pbc="F F F"
Xe       0.00000000       0.00000000       0.00000000       0.00000000       0.00000000      -4.28019810
Xe       0.00000000       0.00000000       2.76666667       0.00000000       0.00000000       4.28019810
2
Properties=species:S:1:pos:R:3:forces:R:3 energy=-45.80873646562748 pbc="F F F"
Xe       0.00000000       0.00000000       0.00000000       0.00000000       0.00000000      -3.95664716
Xe       0.00000000       0.00000000       2.82545455       0.00000000       0.00000000       3.95664716
2
Properties=species:S:1:pos:R:3:forces:R:3 energy=-46.03168006829682 pbc="F F F"
Xe       0.00000000       0.00000000       0.00000000       0.00000000       0.00000000      -3.62665200
Xe       0.00000000       0.00000000       2.88424242       0.00000000       0.00000000       3.62665200
2
Properties=species:S:1:pos:R:3:forces:R:3 energy=-46.23499084079588 pbc="F F F"
Xe       0.00000000       0.00000000       0.00000000       0.00000000       0.00000000      -3.28911757
Xe       0.00000000       0.00000000       2.94303030       0.00000000       0.00000000       3.28911757
2
Properties=species:S:1:pos:R:3:forces:R:3 energy=-46.41834433111647 pbc="F F F"
Xe       0.00000000       0.00000000       0.00000000       0.00000000       0.00000000      -2.94886255
Xe       0.00000000       0.00000000       3.00181818       0.00000000       0.00000000       2.94886255
2
Properties=species:S:1:pos:R:3:forces:R:3 energy=-46.58181662571156 pbc="F F F"
Xe       0.00000000       0.00000000       0.00000000       0.00000000       0.00000000      -2.61421752
Xe       0.00000000       0.00000000       3.06060606       0.00000000       0.00000000       2.61421752
2
Properties=species:S:1:pos:R:3:forces:R:3 energy=-46.72599496304468 pbc="F F F"
Xe       0.00000000       0.00000000       0.00000000       0.00000000       0.00000000      -2.29403853
Xe       0.00000000       0.00000000       3.11939394       0.00000000       0.00000000       2.29403853
2
Properties=species:S:1:pos:R:3:forces:R:3 energy=-46.85196248905606 pbc="F F F"
Xe       0.00000000       0.00000000       0.00000000       0.00000000       0.00000000      -1.99538803
Xe       0.00000000       0.00000000       3.17818182       0.00000000       0.00000000       1.99538803
2
Properties=species:S:1:pos:R:3:forces:R:3 energy=-46.96111514456632 pbc="F F F"
Xe       0.00000000       0.00000000       0.00000000       0.00000000       0.00000000      -1.72256351
Xe       0.00000000       0.00000000       3.23696970       0.00000000       0.00000000       1.72256351
2
Properties=species:S:1:pos:R:3:forces:R:3 energy=-47.055035784226426 pbc="F F F"
Xe       0.00000000       0.00000000       0.00000000       0.00000000       0.00000000      -1.47739768
Xe       0.00000000       0.00000000       3.29575758       0.00000000       0.00000000       1.47739768
2
Properties=species:S:1:pos:R:3:forces:R:3 energy=-47.13536829150796 pbc="F F F"
Xe       0.00000000       0.00000000       0.00000000       0.00000000       0.00000000      -1.26019561
Xe       0.00000000       0.00000000       3.35454545       0.00000000       0.00000000       1.26019561
2
Properties=species:S:1:pos:R:3:forces:R:3 energy=-47.2037450986631 pbc="F F F"
Xe       0.00000000       0.00000000       0.00000000       0.00000000       0.00000000      -1.07054305
Xe       0.00000000       0.00000000       3.41333333       0.00000000       0.00000000       1.07054305
2
Properties=species:S:1:pos:R:3:forces:R:3 energy=-47.2617643080445 pbc="F F F"
Xe       0.00000000       0.00000000       0.00000000       0.00000000       0.00000000      -0.90767837
Xe       0.00000000       0.00000000       3.47212121       0.00000000       0.00000000       0.90767837
2
Properties=species:S:1:pos:R:3:forces:R:3 energy=-47.310970609907464 pbc="F F F"
Xe       0.00000000       0.00000000       0.00000000       0.00000000       0.00000000      -0.77043396
Xe       0.00000000       0.00000000       3.53090909       0.00000000       0.00000000       0.77043396
2
Properties=species:S:1:pos:R:3:forces:R:3 energy=-47.35281714494074 pbc="F F F"
Xe       0.00000000       0.00000000       0.00000000       0.00000000       0.00000000      -0.65702152
Xe       0.00000000       0.00000000       3.58969697       0.00000000       0.00000000       0.65702152
2
Properties=species:S:1:pos:R:3:forces:R:3 energy=-47.38863880059368 pbc="F F F"
Xe       0.00000000       0.00000000       0.00000000       0.00000000       0.00000000      -0.56495452
Xe       0.00000000       0.00000000       3.64848485       0.00000000       0.00000000       0.56495452
2
Properties=species:S:1:pos:R:3:forces:R:3 energy=-47.41959881085829 pbc="F F F"
Xe       0.00000000       0.00000000       0.00000000       0.00000000       0.00000000      -0.49113446
Xe       0.00000000       0.00000000       3.70727273       0.00000000       0.00000000       0.49113446
2
Properties=species:S:1:pos:R:3:forces:R:3 energy=-47.44667349748006 pbc="F F F"
Xe       0.00000000       0.00000000       0.00000000       0.00000000       0.00000000      -0.43214196
Xe       0.00000000       0.00000000       3.76606061       0.00000000       0.00000000       0.43214196
2
Properties=species:S:1:pos:R:3:forces:R:3 energy=-47.47063320122348 pbc="F F F"
Xe       0.00000000       0.00000000       0.00000000       0.00000000       0.00000000      -0.38457766
Xe       0.00000000       0.00000000       3.82484848       0.00000000       0.00000000       0.38457766
2
Properties=species:S:1:pos:R:3:forces:R:3 energy=-47.492053727547635 pbc="F F F"
Xe       0.00000000       0.00000000       0.00000000       0.00000000       0.00000000      -0.34533784
Xe       0.00000000       0.00000000       3.88363636       0.00000000       0.00000000       0.34533784
2
Properties=species:S:1:pos:R:3:forces:R:3 energy=-47.51134687527181 pbc="F F F"
Xe       0.00000000       0.00000000       0.00000000       0.00000000       0.00000000      -0.31181845
Xe       0.00000000       0.00000000       3.94242424       0.00000000       0.00000000       0.31181845
2
Properties=species:S:1:pos:R:3:forces:R:3 energy=-47.52878713153674 pbc="F F F"
Xe       0.00000000       0.00000000       0.00000000       0.00000000       0.00000000      -0.28198570
Xe       0.00000000       0.00000000       4.00121212       0.00000000       0.00000000       0.28198570
2
Properties=species:S:1:pos:R:3:forces:R:3 energy=-47.54454601833519 pbc="F F F"
Xe       0.00000000       0.00000000       0.00000000       0.00000000       0.00000000      -0.25436431
Xe       0.00000000       0.00000000       4.06000000       0.00000000       0.00000000       0.25436431
2
Properties=species:S:1:pos:R:3:forces:R:3 energy=-47.55871879697677 pbc="F F F"
Xe       0.00000000       0.00000000       0.00000000       0.00000000       0.00000000      -0.22798809
Xe       0.00000000       0.00000000       4.11878788       0.00000000       0.00000000       0.22798809
2
Properties=species:S:1:pos:R:3:forces:R:3 energy=-47.57136261506054 pbc="F F F"
Xe       0.00000000       0.00000000       0.00000000       0.00000000       0.00000000      -0.20229763
Xe       0.00000000       0.00000000       4.17757576       0.00000000       0.00000000       0.20229763
2
Properties=species:S:1:pos:R:3:forces:R:3 energy=-47.582511774767596 pbc="F F F"
Xe       0.00000000       0.00000000       0.00000000       0.00000000       0.00000000      -0.17707264
Xe       0.00000000       0.00000000       4.23636364       0.00000000       0.00000000       0.17707264
2
Properties=species:S:1:pos:R:3:forces:R:3 energy=-47.59219298927421 pbc="F F F"
Xe       0.00000000       0.00000000       0.00000000       0.00000000       0.00000000      -0.15234418
Xe       0.00000000       0.00000000       4.29515152       0.00000000       0.00000000       0.15234418
2
Properties=species:S:1:pos:R:3:forces:R:3 energy=-47.60043684268278 pbc="F F F"
Xe       0.00000000       0.00000000       0.00000000       0.00000000       0.00000000      -0.12832937
Xe       0.00000000       0.00000000       4.35393939       0.00000000       0.00000000       0.12832937
2
Properties=species:S:1:pos:R:3:forces:R:3 energy=-47.60730066711801 pbc="F F F"
Xe       0.00000000       0.00000000       0.00000000       0.00000000       0.00000000      -0.10535999
Xe       0.00000000       0.00000000       4.41272727       0.00000000       0.00000000       0.10535999
2
Properties=species:S:1:pos:R:3:forces:R:3 energy=-47.61285328948158 pbc="F F F"
Xe       0.00000000       0.00000000       0.00000000       0.00000000       0.00000000      -0.08383442
Xe       0.00000000       0.00000000       4.47151515       0.00000000       0.00000000       0.08383442
2
Properties=species:S:1:pos:R:3:forces:R:3 energy=-47.61719411681776 pbc="F F F"
Xe       0.00000000       0.00000000       0.00000000       0.00000000       0.00000000      -0.06415796
Xe       0.00000000       0.00000000       4.53030303       0.00000000       0.00000000       0.06415796
2
Properties=species:S:1:pos:R:3:forces:R:3 energy=-47.62044167796644 pbc="F F F"
Xe       0.00000000       0.00000000       0.00000000       0.00000000       0.00000000      -0.04669502
Xe       0.00000000       0.00000000       4.58909091       0.00000000       0.00000000       0.04669502
2
Properties=species:S:1:pos:R:3:forces:R:3 energy=-47.62273363306661 pbc="F F F"
Xe       0.00000000       0.00000000       0.00000000       0.00000000       0.00000000      -0.03171739
Xe       0.00000000       0.00000000       4.64787879       0.00000000       0.00000000       0.03171739
2
Properties=species:S:1:pos:R:3:forces:R:3 energy=-47.62422295885905 pbc="F F F"
Xe       0.00000000       0.00000000       0.00000000       0.00000000       0.00000000      -0.01936365
Xe       0.00000000       0.00000000       4.70666667       0.00000000       0.00000000       0.01936365
2
Properties=species:S:1:pos:R:3:forces:R:3 energy=-47.62506267801798 pbc="F F F"
Xe       0.00000000       0.00000000       0.00000000       0.00000000       0.00000000      -0.00960657
Xe       0.00000000       0.00000000       4.76545455       0.00000000       0.00000000       0.00960657
2
Properties=species:S:1:pos:R:3:forces:R:3 energy=-47.62539823292434 pbc="F F F"
Xe       0.00000000       0.00000000       0.00000000       0.00000000       0.00000000      -0.00224726
Xe       0.00000000       0.00000000       4.82424242       0.00000000       0.00000000       0.00224726
2
Properties=species:S:1:pos:R:3:forces:R:3 energy=-47.62536748724966 pbc="F F F"
Xe       0.00000000       0.00000000       0.00000000       0.00000000       0.00000000       0.00305454
Xe       0.00000000       0.00000000       4.88303030       0.00000000       0.00000000      -0.00305454
2
Properties=species:S:1:pos:R:3:forces:R:3 energy=-47.625070183827376 pbc="F F F"
Xe       0.00000000       0.00000000       0.00000000       0.00000000       0.00000000       0.00672806
Xe       0.00000000       0.00000000       4.94181818       0.00000000       0.00000000      -0.00672806
2
Properties=species:S:1:pos:R:3:forces:R:3 energy=-47.62459847094242 pbc="F F F"
Xe       0.00000000       0.00000000       0.00000000       0.00000000       0.00000000       0.00921367
Xe       0.00000000       0.00000000       5.00060606       0.00000000       0.00000000      -0.00921367
2
Properties=species:S:1:pos:R:3:forces:R:3 energy=-47.62400256451218 pbc="F F F"
Xe       0.00000000       0.00000000       0.00000000       0.00000000       0.00000000       0.01091326
Xe       0.00000000       0.00000000       5.05939394       0.00000000       0.00000000      -0.01091326
2
Properties=species:S:1:pos:R:3:forces:R:3 energy=-47.62332505818708 pbc="F F F"
Xe       0.00000000       0.00000000       0.00000000       0.00000000       0.00000000       0.01216402
Xe       0.00000000       0.00000000       5.11818182       0.00000000       0.00000000      -0.01216402
2
Properties=species:S:1:pos:R:3:forces:R:3 energy=-47.62257803912682 pbc="F F F"
Xe       0.00000000       0.00000000       0.00000000       0.00000000       0.00000000       0.01323869
Xe       0.00000000       0.00000000       5.17696970       0.00000000       0.00000000      -0.01323869
2
Properties=species:S:1:pos:R:3:forces:R:3 energy=-47.621765962720694 pbc="F F F"
Xe       0.00000000       0.00000000       0.00000000       0.00000000       0.00000000       0.01433879
Xe       0.00000000       0.00000000       5.23575758       0.00000000       0.00000000      -0.01433879
2
Properties=species:S:1:pos:R:3:forces:R:3 energy=-47.62088946174117 pbc="F F F"
Xe       0.00000000       0.00000000       0.00000000       0.00000000       0.00000000       0.01555260
Xe       0.00000000       0.00000000       5.29454545       0.00000000       0.00000000      -0.01555260
2
Properties=species:S:1:pos:R:3:forces:R:3 energy=-47.61993770902983 pbc="F F F"
Xe       0.00000000       0.00000000       0.00000000       0.00000000       0.00000000       0.01685064
Xe       0.00000000       0.00000000       5.35333333       0.00000000       0.00000000      -0.01685064
2
Properties=species:S:1:pos:R:3:forces:R:3 energy=-47.61890366203118 pbc="F F F"
Xe       0.00000000       0.00000000       0.00000000       0.00000000       0.00000000       0.01826311
Xe       0.00000000       0.00000000       5.41212121       0.00000000       0.00000000      -0.01826311
2
Properties=species:S:1:pos:R:3:forces:R:3 energy=-47.61778788303366 pbc="F F F"
Xe       0.00000000       0.00000000       0.00000000       0.00000000       0.00000000       0.01970484
Xe       0.00000000       0.00000000       5.47090909       0.00000000       0.00000000      -0.01970484
2
Properties=species:S:1:pos:R:3:forces:R:3 energy=-47.61662141230604 pbc="F F F"
Xe       0.00000000       0.00000000       0.00000000       0.00000000       0.00000000       0.01942546
Xe       0.00000000       0.00000000       5.52969697       0.00000000       0.00000000      -0.01942546
2
Properties=species:S:1:pos:R:3:forces:R:3 energy=-47.61558402133683 pbc="F F F"
Xe       0.00000000       0.00000000       0.00000000       0.00000000       0.00000000       0.01530983
Xe       0.00000000       0.00000000       5.58848485       0.00000000       0.00000000      -0.01530983
2
Properties=species:S:1:pos:R:3:forces:R:3 energy=-47.6148478126222 pbc="F F F"
Xe       0.00000000       0.00000000       0.00000000       0.00000000       0.00000000       0.00997883
Xe       0.00000000       0.00000000       5.64727273       0.00000000       0.00000000      -0.00997883
2
Properties=species:S:1:pos:R:3:forces:R:3 energy=-47.61433688265093 pbc="F F F"
Xe       0.00000000       0.00000000       0.00000000       0.00000000       0.00000000       0.00810746
Xe       0.00000000       0.00000000       5.70606061       0.00000000       0.00000000      -0.00810746
2
Properties=species:S:1:pos:R:3:forces:R:3 energy=-47.613818875034724 pbc="F F F"
Xe       0.00000000       0.00000000       0.00000000       0.00000000       0.00000000       0.00974613
Xe       0.00000000       0.00000000       5.76484848       0.00000000       0.00000000      -0.00974613
2
Properties=species:S:1:pos:R:3:forces:R:3 energy=-47.61321779795929 pbc="F F F"
Xe       0.00000000       0.00000000       0.00000000       0.00000000       0.00000000       0.01029348
Xe       0.00000000       0.00000000       5.82363636       0.00000000       0.00000000      -0.01029348
2
Properties=species:S:1:pos:R:3:forces:R:3 energy=-47.612678854239014 pbc="F F F"
Xe       0.00000000       0.00000000       0.00000000       0.00000000       0.00000000       0.00763505
Xe       0.00000000       0.00000000       5.88242424       0.00000000       0.00000000      -0.00763505
2
Properties=species:S:1:pos:R:3:forces:R:3 energy=-47.61233194434166 pbc="F F F"
Xe       0.00000000       0.00000000       0.00000000       0.00000000       0.00000000       0.00424593
Xe       0.00000000       0.00000000       5.94121212       0.00000000       0.00000000      -0.00424593
2
Properties=species:S:1:pos:R:3:forces:R:3 energy=-47.612139080081654 pbc="F F F"
Xe       0.00000000       0.00000000       0.00000000       0.00000000       0.00000000       0.00278093
Xe       0.00000000       0.00000000       6.00000000       0.00000000       0.00000000      -0.00278093
