2
Properties=species:S:1:pos:R:3:forces:R:3 energy=9703.235904051458 pbc="F F F"
Xe       0.00000000       0.00000000       0.00000000       0.00000000       0.00000000 -162139.20312500
Xe       0.00000000       0.00000000       0.18000000       0.00000000       0.00000000  162139.20312500
2
Properties=species:S:1:pos:R:3:forces:R:3 energy=3969.387271238959 pbc="F F F"
Xe       0.00000000       0.00000000       0.00000000       0.00000000       0.00000000  -55115.12500000
Xe       0.00000000       0.00000000       0.23878788       0.00000000       0.00000000   55115.12500000
2
Properties=species:S:1:pos:R:3:forces:R:3 energy=1877.9631989733339 pbc="F F F"
Xe       0.00000000       0.00000000       0.00000000       0.00000000       0.00000000  -21718.08593750
Xe       0.00000000       0.00000000       0.29757576       0.00000000       0.00000000   21718.08593750
2
Properties=species:S:1:pos:R:3:forces:R:3 energy=1031.3450349108339 pbc="F F F"
Xe       0.00000000       0.00000000       0.00000000       0.00000000       0.00000000   -8912.83496094
Xe       0.00000000       0.00000000       0.35636364       0.00000000       0.00000000    8912.83496094
2
Properties=species:S:1:pos:R:3:forces:R:3 energy=697.0897858889804 pbc="F F F"
Xe       0.00000000       0.00000000       0.00000000       0.00000000       0.00000000   -3142.21948242
Xe       0.00000000       0.00000000       0.41515152       0.00000000       0.00000000    3142.21948242
2
Properties=species:S:1:pos:R:3:forces:R:3 energy=608.8757966327518 pbc="F F F"
Xe       0.00000000       0.00000000       0.00000000       0.00000000       0.00000000    -159.22230530
Xe       0.00000000       0.00000000       0.47393939       0.00000000       0.00000000     159.22230530
2
Properties=species:S:1:pos:R:3:forces:R:3 energy=651.6941560093356 pbc="F F F"
Xe       0.00000000       0.00000000       0.00000000       0.00000000       0.00000000    1429.97753906
Xe       0.00000000       0.00000000       0.53272727       0.00000000       0.00000000   -1429.97753906
2
Properties=species:S:1:pos:R:3:forces:R:3 energy=756.270755136765 pbc="F F F"
Xe       0.00000000       0.00000000       0.00000000       0.00000000       0.00000000    1948.93078613
Xe       0.00000000       0.00000000       0.59151515       0.00000000       0.00000000   -1948.93078613
2
Properties=species:S:1:pos:R:3:forces:R:3 energy=858.6902497751748 pbc="F F F"
Xe       0.00000000       0.00000000       0.00000000       0.00000000       0.00000000    1339.64611816
Xe       0.00000000       0.00000000       0.65030303       0.00000000       0.00000000   -1339.64611816
2
Properties=species:S:1:pos:R:3:forces:R:3 energy=1934.934146273805 pbc="F F F"
Xe       0.00000000       0.00000000       0.00000000       0.00000000       0.00000000   33554.11718750
Xe       0.00000000       0.00000000       0.70909091       0.00000000       0.00000000  -33554.11718750
2
Properties=species:S:1:pos:R:3:forces:R:3 energy=2559.0166658272296 pbc="F F F"
Xe       0.00000000       0.00000000       0.00000000       0.00000000       0.00000000   -5399.54785156
Xe       0.00000000       0.00000000       0.76787879       0.00000000       0.00000000    5399.54785156
2
Properties=species:S:1:pos:R:3:forces:R:3 energy=2318.520572107324 pbc="F F F"
Xe       0.00000000       0.00000000       0.00000000       0.00000000       0.00000000   -2975.70263672
Xe       0.00000000       0.00000000       0.82666667       0.00000000       0.00000000    2975.70263672
2
Properties=species:S:1:pos:R:3:forces:R:3 energy=2077.7915682470075 pbc="F F F"
Xe       0.00000000       0.00000000       0.00000000       0.00000000       0.00000000   -5644.06591797
Xe       0.00000000       0.00000000       0.88545455       0.00000000       0.00000000    5644.06591797
2
Properties=species:S:1:pos:R:3:forces:R:3 energy=1682.913638622864 pbc="F F F"
Xe       0.00000000       0.00000000       0.00000000       0.00000000       0.00000000   -7308.60546875
Xe       0.00000000       0.00000000       0.94424242       0.00000000       0.00000000    7308.60546875
2
Properties=species:S:1:pos:R:3:forces:R:3 energy=1262.057437538104 pbc="F F F"
Xe       0.00000000       0.00000000       0.00000000       0.00000000       0.00000000   -6807.32714844
Xe       0.00000000       0.00000000       1.00303030       0.00000000       0.00000000    6807.32714844
2
Properties=species:S:1:pos:R:3:forces:R:3 energy=894.0457189037295 pbc="F F F"
Xe       0.00000000       0.00000000       0.00000000       0.00000000       0.00000000   -5664.67773438
Xe       0.00000000       0.00000000       1.06181818       0.00000000       0.00000000    5664.67773438
2
Properties=species:S:1:pos:R:3:forces:R:3 energy=600.0457800941091 pbc="F F F"
Xe       0.00000000       0.00000000       0.00000000       0.00000000       0.00000000   -4318.13525391
Xe       0.00000000       0.00000000       1.12060606       0.00000000       0.00000000    4318.13525391
2
Properties=species:S:1:pos:R:3:forces:R:3 energy=385.4325600788381 pbc="F F F"
Xe       0.00000000       0.00000000       0.00000000       0.00000000       0.00000000   -3022.04614258
Xe       0.00000000       0.00000000       1.17939394       0.00000000       0.00000000    3022.04614258
2
Properties=species:S:1:pos:R:3:forces:R:3 energy=238.9190257927011 pbc="F F F"
Xe       0.00000000       0.00000000       0.00000000       0.00000000       0.00000000   -2010.46215820
Xe       0.00000000       0.00000000       1.23818182       0.00000000       0.00000000    2010.46215820
2
Properties=species:S:1:pos:R:3:forces:R:3 energy=141.71852563387336 pbc="F F F"
Xe       0.00000000       0.00000000       0.00000000       0.00000000       0.00000000   -1345.65356445
Xe       0.00000000       0.00000000       1.29696970       0.00000000       0.00000000    1345.65356445
2
Properties=species:S:1:pos:R:3:forces:R:3 energy=76.83356205801633 pbc="F F F"
Xe       0.00000000       0.00000000       0.00000000       0.00000000       0.00000000    -885.27069092
Xe       0.00000000       0.00000000       1.35575758       0.00000000       0.00000000     885.27069092
2
Properties=species:S:1:pos:R:3:forces:R:3 energy=35.20600672878728 pbc="F F F"
Xe       0.00000000       0.00000000       0.00000000       0.00000000       0.00000000    -551.53710938
Xe       0.00000000       0.00000000       1.41454545       0.00000000       0.00000000     551.53710938
2
Properties=species:S:1:pos:R:3:forces:R:3 energy=9.558748608558524 pbc="F F F"
Xe       0.00000000       0.00000000       0.00000000       0.00000000       0.00000000    -339.66726685
Xe       0.00000000       0.00000000       1.47333333       0.00000000       0.00000000     339.66726685
2
Properties=species:S:1:pos:R:3:forces:R:3 energy=-6.476284787092995 pbc="F F F"
Xe       0.00000000       0.00000000       0.00000000       0.00000000       0.00000000    -217.09623718
Xe       0.00000000       0.00000000       1.53212121       0.00000000       0.00000000     217.09623718
2
Properties=species:S:1:pos:R:3:forces:R:3 energy=-16.905786319177235 pbc="F F F"
Xe       0.00000000       0.00000000       0.00000000       0.00000000       0.00000000    -143.25317383
Xe       0.00000000       0.00000000       1.59090909       0.00000000       0.00000000     143.25317383
2
Properties=species:S:1:pos:R:3:forces:R:3 energy=-23.844654642408333 pbc="F F F"
Xe       0.00000000       0.00000000       0.00000000       0.00000000       0.00000000     -96.49913025
Xe       0.00000000       0.00000000       1.64969697       0.00000000       0.00000000      96.49913025
2
Properties=species:S:1:pos:R:3:forces:R:3 energy=-28.600241791148104 pbc="F F F"
Xe       0.00000000       0.00000000       0.00000000       0.00000000       0.00000000     -67.57322693
Xe       0.00000000       0.00000000       1.70848485       0.00000000       0.00000000      67.57322693
2
Properties=species:S:1:pos:R:3:forces:R:3 energy=-31.99426784750588 pbc="F F F"
Xe       0.00000000       0.00000000       0.00000000       0.00000000       0.00000000     -49.19799042
Xe       0.00000000       0.00000000       1.76727273       0.00000000       0.00000000      49.19799042
2
Properties=species:S:1:pos:R:3:forces:R:3 energy=-34.50331625747058 pbc="F F F"
Xe       0.00000000       0.00000000       0.00000000       0.00000000       0.00000000     -36.94482803
Xe       0.00000000       0.00000000       1.82606061       0.00000000       0.00000000      36.94482803
2
Properties=species:S:1:pos:R:3:forces:R:3 energy=-36.412211341694935 pbc="F F F"
Xe       0.00000000       0.00000000       0.00000000       0.00000000       0.00000000     -28.50475121
Xe       0.00000000       0.00000000       1.88484848       0.00000000       0.00000000      28.50475121
2
Properties=species:S:1:pos:R:3:forces:R:3 energy=-37.903724735400864 pbc="F F F"
Xe       0.00000000       0.00000000       0.00000000       0.00000000       0.00000000     -22.57663727
Xe       0.00000000       0.00000000       1.94363636       0.00000000       0.00000000      22.57663727
2
Properties=species:S:1:pos:R:3:forces:R:3 energy=-39.099503263463056 pbc="F F F"
Xe       0.00000000       0.00000000       0.00000000       0.00000000       0.00000000     -18.33288956
Xe       0.00000000       0.00000000       2.00242424       0.00000000       0.00000000      18.33288956
2
Properties=species:S:1:pos:R:3:forces:R:3 energy=-40.081440785799366 pbc="F F F"
Xe       0.00000000       0.00000000       0.00000000       0.00000000       0.00000000     -15.22870731
Xe       0.00000000       0.00000000       2.06121212       0.00000000       0.00000000      15.22870731
2
Properties=species:S:1:pos:R:3:forces:R:3 energy=-40.905212740101454 pbc="F F F"
Xe       0.00000000       0.00000000       0.00000000       0.00000000       0.00000000     -12.90339947
Xe       0.00000000       0.00000000       2.12000000       0.00000000       0.00000000      12.90339947
2
Properties=species:S:1:pos:R:3:forces:R:3 energy=-41.6090613935973 pbc="F F F"
Xe       0.00000000       0.00000000       0.00000000       0.00000000       0.00000000     -11.11631107
Xe       0.00000000       0.00000000       2.17878788       0.00000000       0.00000000      11.11631107
2
Properties=species:S:1:pos:R:3:forces:R:3 energy=-42.21960561985916 pbc="F F F"
Xe       0.00000000       0.00000000       0.00000000       0.00000000       0.00000000      -9.70780373
Xe       0.00000000       0.00000000       2.23757576       0.00000000       0.00000000       9.70780373
2
Properties=species:S:1:pos:R:3:forces:R:3 energy=-42.75583108164684 pbc="F F F"
Xe       0.00000000       0.00000000       0.00000000       0.00000000       0.00000000      -8.57444477
Xe       0.00000000       0.00000000       2.29636364       0.00000000       0.00000000       8.57444477
2
Properties=species:S:1:pos:R:3:forces:R:3 energy=-43.23184061654888 pbc="F F F"
Xe       0.00000000       0.00000000       0.00000000       0.00000000       0.00000000      -7.65054512
Xe       0.00000000       0.00000000       2.35515152       0.00000000       0.00000000       7.65054512
2
Properties=species:S:1:pos:R:3:forces:R:3 energy=-43.65860519015503 pbc="F F F"
Xe       0.00000000       0.00000000       0.00000000       0.00000000       0.00000000      -6.89305830
Xe       0.00000000       0.00000000       2.41393939       0.00000000       0.00000000       6.89305830
2
Properties=species:S:1:pos:R:3:forces:R:3 energy=-44.0449404530126 pbc="F F F"
Xe       0.00000000       0.00000000       0.00000000       0.00000000       0.00000000      -6.27036905
Xe       0.00000000       0.00000000       2.47272727       0.00000000       0.00000000       6.27036905
2
Properties=species:S:1:pos:R:3:forces:R:3 energy=-44.39795688123944 pbc="F F F"
Xe       0.00000000       0.00000000       0.00000000       0.00000000       0.00000000      -5.75528574
Xe       0.00000000       0.00000000       2.53151515       0.00000000       0.00000000       5.75528574
2
Properties=species:S:1:pos:R:3:forces:R:3 energy=-44.72322379900286 pbc="F F F"
Xe       0.00000000       0.00000000       0.00000000       0.00000000       0.00000000      -5.32207298
Xe       0.00000000       0.00000000       2.59030303       0.00000000       0.00000000       5.32207298
2
Properties=species:S:1:pos:R:3:forces:R:3 energy=-45.02482660848213 pbc="F F F"
Xe       0.00000000       0.00000000       0.00000000       0.00000000       0.00000000      -4.94621897
Xe       0.00000000       0.00000000       2.64909091       0.00000000       0.00000000       4.94621897
2
Properties=species:S:1:pos:R:3:forces:R:3 energy=-45.30546214779664 pbc="F F F"
Xe       0.00000000       0.00000000       0.00000000       0.00000000       0.00000000      -4.60529566
Xe       0.00000000       0.00000000       2.70787879       0.00000000       0.00000000       4.60529566
2
Properties=species:S:1:pos:R:3:forces:R:3 energy=-45.566602730907846 pbc="F F F"
Xe       0.00000000       0.00000000       0.00000000       0.00000000       0.00000000      -4.28020000
Xe       0.00000000       0.00000000       2.76666667       0.00000000       0.00000000       4.28020000
2
Properties=species:S:1:pos:R:3:forces:R:3 energy=-45.80873646562748 pbc="F F F"
Xe       0.00000000       0.00000000       0.00000000       0.00000000       0.00000000      -3.95664716
Xe       0.00000000       0.00000000       2.82545455       0.00000000       0.00000000       3.95664716
2
Properties=species:S:1:pos:R:3:forces:R:3 energy=-46.03168006829682 pbc="F F F"
Xe       0.00000000       0.00000000       0.00000000       0.00000000       0.00000000      -3.62665272
Xe       0.00000000       0.00000000       2.88424242       0.00000000       0.00000000       3.62665272
2
Properties=species:S:1:pos:R:3:forces:R:3 energy=-46.23499084079588 pbc="F F F"
Xe       0.00000000       0.00000000       0.00000000       0.00000000       0.00000000      -3.28912044
Xe       0.00000000       0.00000000       2.94303030       0.00000000       0.00000000       3.28912044
2
Properties=species:S:1:pos:R:3:forces:R:3 energy=-46.41834433111647 pbc="F F F"
Xe       0.00000000       0.00000000       0.00000000       0.00000000       0.00000000      -2.94886327
Xe       0.00000000       0.00000000       3.00181818       0.00000000       0.00000000       2.94886327
2
Properties=species:S:1:pos:R:3:forces:R:3 energy=-46.58181662571156 pbc="F F F"
Xe       0.00000000       0.00000000       0.00000000       0.00000000       0.00000000      -2.61421752
Xe       0.00000000       0.00000000       3.06060606       0.00000000       0.00000000       2.61421752
2
Properties=species:S:1:pos:R:3:forces:R:3 energy=-46.72599877774194 pbc="F F F"
Xe       0.00000000       0.00000000       0.00000000       0.00000000       0.00000000      -2.29403853
Xe       0.00000000       0.00000000       3.11939394       0.00000000       0.00000000       2.29403853
2
Properties=species:S:1:pos:R:3:forces:R:3 energy=-46.85196248905606 pbc="F F F"
Xe       0.00000000       0.00000000       0.00000000       0.00000000       0.00000000      -1.99538922
Xe       0.00000000       0.00000000       3.17818182       0.00000000       0.00000000       1.99538922
2
Properties=species:S:1:pos:R:3:forces:R:3 energy=-46.96111514456632 pbc="F F F"
Xe       0.00000000       0.00000000       0.00000000       0.00000000       0.00000000      -1.72256327
Xe       0.00000000       0.00000000       3.23696970       0.00000000       0.00000000       1.72256327
2
Properties=species:S:1:pos:R:3:forces:R:3 energy=-47.055035784226426 pbc="F F F"
Xe       0.00000000       0.00000000       0.00000000       0.00000000       0.00000000      -1.47739792
Xe       0.00000000       0.00000000       3.29575758       0.00000000       0.00000000       1.47739792
2
Properties=species:S:1:pos:R:3:forces:R:3 energy=-47.13536829150796 pbc="F F F"
Xe       0.00000000       0.00000000       0.00000000       0.00000000       0.00000000      -1.26019633
Xe       0.00000000       0.00000000       3.35454545       0.00000000       0.00000000       1.26019633
2
Properties=species:S:1:pos:R:3:forces:R:3 energy=-47.2037450986631 pbc="F F F"
Xe       0.00000000       0.00000000       0.00000000       0.00000000       0.00000000      -1.07054317
Xe       0.00000000       0.00000000       3.41333333       0.00000000       0.00000000       1.07054317
2
Properties=species:S:1:pos:R:3:forces:R:3 energy=-47.2617643080445 pbc="F F F"
Xe       0.00000000       0.00000000       0.00000000       0.00000000       0.00000000      -0.90767920
Xe       0.00000000       0.00000000       3.47212121       0.00000000       0.00000000       0.90767920
2
Properties=species:S:1:pos:R:3:forces:R:3 energy=-47.310970609907464 pbc="F F F"
Xe       0.00000000       0.00000000       0.00000000       0.00000000       0.00000000      -0.77043480
Xe       0.00000000       0.00000000       3.53090909       0.00000000       0.00000000       0.77043480
2
Properties=species:S:1:pos:R:3:forces:R:3 energy=-47.35281714494074 pbc="F F F"
Xe       0.00000000       0.00000000       0.00000000       0.00000000       0.00000000      -0.65702230
Xe       0.00000000       0.00000000       3.58969697       0.00000000       0.00000000       0.65702230
2
Properties=species:S:1:pos:R:3:forces:R:3 energy=-47.38863880059368 pbc="F F F"
Xe       0.00000000       0.00000000       0.00000000       0.00000000       0.00000000      -0.56495488
Xe       0.00000000       0.00000000       3.64848485       0.00000000       0.00000000       0.56495488
2
Properties=species:S:1:pos:R:3:forces:R:3 energy=-47.41959881085829 pbc="F F F"
Xe       0.00000000       0.00000000       0.00000000       0.00000000       0.00000000      -0.49113455
Xe       0.00000000       0.00000000       3.70727273       0.00000000       0.00000000       0.49113455
2
Properties=species:S:1:pos:R:3:forces:R:3 energy=-47.44667349748006 pbc="F F F"
Xe       0.00000000       0.00000000       0.00000000       0.00000000       0.00000000      -0.43214196
Xe       0.00000000       0.00000000       3.76606061       0.00000000       0.00000000       0.43214196
2
Properties=species:S:1:pos:R:3:forces:R:3 energy=-47.47063320122348 pbc="F F F"
Xe       0.00000000       0.00000000       0.00000000       0.00000000       0.00000000      -0.38457724
Xe       0.00000000       0.00000000       3.82484848       0.00000000       0.00000000       0.38457724
2
Properties=species:S:1:pos:R:3:forces:R:3 energy=-47.492053727547635 pbc="F F F"
Xe       0.00000000       0.00000000       0.00000000       0.00000000       0.00000000      -0.34533742
Xe       0.00000000       0.00000000       3.88363636       0.00000000       0.00000000       0.34533742
2
Properties=species:S:1:pos:R:3:forces:R:3 energy=-47.51134687527181 pbc="F F F"
Xe       0.00000000       0.00000000       0.00000000       0.00000000       0.00000000      -0.31181845
Xe       0.00000000       0.00000000       3.94242424       0.00000000       0.00000000       0.31181845
2
Properties=species:S:1:pos:R:3:forces:R:3 energy=-47.52878713074478 pbc="F F F"
Xe       0.00000000       0.00000000       0.00000000       0.00000000       0.00000000      -0.28198534
Xe       0.00000000       0.00000000       4.00121212       0.00000000       0.00000000       0.28198534
2
Properties=species:S:1:pos:R:3:forces:R:3 energy=-47.54454601833519 pbc="F F F"
Xe       0.00000000       0.00000000       0.00000000       0.00000000       0.00000000      -0.25436479
Xe       0.00000000       0.00000000       4.06000000       0.00000000       0.00000000       0.25436479
2
Properties=species:S:1:pos:R:3:forces:R:3 energy=-47.55871879697677 pbc="F F F"
Xe       0.00000000       0.00000000       0.00000000       0.00000000       0.00000000      -0.22798780
Xe       0.00000000       0.00000000       4.11878788       0.00000000       0.00000000       0.22798780
2
Properties=species:S:1:pos:R:3:forces:R:3 energy=-47.57136261506054 pbc="F F F"
Xe       0.00000000       0.00000000       0.00000000       0.00000000       0.00000000      -0.20229740
Xe       0.00000000       0.00000000       4.17757576       0.00000000       0.00000000       0.20229740
2
Properties=species:S:1:pos:R:3:forces:R:3 energy=-47.58251177318368 pbc="F F F"
Xe       0.00000000       0.00000000       0.00000000       0.00000000       0.00000000      -0.17707275
Xe       0.00000000       0.00000000       4.23636364       0.00000000       0.00000000       0.17707275
2
Properties=species:S:1:pos:R:3:forces:R:3 energy=-47.59219298927421 pbc="F F F"
Xe       0.00000000       0.00000000       0.00000000       0.00000000       0.00000000      -0.15234433
Xe       0.00000000       0.00000000       4.29515152       0.00000000       0.00000000       0.15234433
2
Properties=species:S:1:pos:R:3:forces:R:3 energy=-47.60043684268278 pbc="F F F"
Xe       0.00000000       0.00000000       0.00000000       0.00000000       0.00000000      -0.12832949
Xe       0.00000000       0.00000000       4.35393939       0.00000000       0.00000000       0.12832949
2
Properties=species:S:1:pos:R:3:forces:R:3 energy=-47.607300665534105 pbc="F F F"
Xe       0.00000000       0.00000000       0.00000000       0.00000000       0.00000000      -0.10536025
Xe       0.00000000       0.00000000       4.41272727       0.00000000       0.00000000       0.10536025
2
Properties=species:S:1:pos:R:3:forces:R:3 energy=-47.61285328948158 pbc="F F F"
Xe       0.00000000       0.00000000       0.00000000       0.00000000       0.00000000      -0.08383448
Xe       0.00000000       0.00000000       4.47151515       0.00000000       0.00000000       0.08383448
2
Properties=species:S:1:pos:R:3:forces:R:3 energy=-47.61719411681776 pbc="F F F"
Xe       0.00000000       0.00000000       0.00000000       0.00000000       0.00000000      -0.06415816
Xe       0.00000000       0.00000000       4.53030303       0.00000000       0.00000000       0.06415816
2
Properties=species:S:1:pos:R:3:forces:R:3 energy=-47.62044167638253 pbc="F F F"
Xe       0.00000000       0.00000000       0.00000000       0.00000000       0.00000000      -0.04669479
Xe       0.00000000       0.00000000       4.58909091       0.00000000       0.00000000       0.04669479
2
Properties=species:S:1:pos:R:3:forces:R:3 energy=-47.62273363306661 pbc="F F F"
Xe       0.00000000       0.00000000       0.00000000       0.00000000       0.00000000      -0.03171781
Xe       0.00000000       0.00000000       4.64787879       0.00000000       0.00000000       0.03171781
2
Properties=species:S:1:pos:R:3:forces:R:3 energy=-47.62422295885905 pbc="F F F"
Xe       0.00000000       0.00000000       0.00000000       0.00000000       0.00000000      -0.01936359
Xe       0.00000000       0.00000000       4.70666667       0.00000000       0.00000000       0.01936359
2
Properties=species:S:1:pos:R:3:forces:R:3 energy=-47.62506267801798 pbc="F F F"
Xe       0.00000000       0.00000000       0.00000000       0.00000000       0.00000000      -0.00960685
Xe       0.00000000       0.00000000       4.76545455       0.00000000       0.00000000       0.00960685
2
Properties=species:S:1:pos:R:3:forces:R:3 energy=-47.62539823292434 pbc="F F F"
Xe       0.00000000       0.00000000       0.00000000       0.00000000       0.00000000      -0.00224706
Xe       0.00000000       0.00000000       4.82424242       0.00000000       0.00000000       0.00224706
2
Properties=species:S:1:pos:R:3:forces:R:3 energy=-47.62536748724966 pbc="F F F"
Xe       0.00000000       0.00000000       0.00000000       0.00000000       0.00000000       0.00305461
Xe       0.00000000       0.00000000       4.88303030       0.00000000       0.00000000      -0.00305461
2
Properties=species:S:1:pos:R:3:forces:R:3 energy=-47.625070183827376 pbc="F F F"
Xe       0.00000000       0.00000000       0.00000000       0.00000000       0.00000000       0.00672813
Xe       0.00000000       0.00000000       4.94181818       0.00000000       0.00000000      -0.00672813
2
Properties=species:S:1:pos:R:3:forces:R:3 energy=-47.62459847094242 pbc="F F F"
Xe       0.00000000       0.00000000       0.00000000       0.00000000       0.00000000       0.00921338
Xe       0.00000000       0.00000000       5.00060606       0.00000000       0.00000000      -0.00921338
2
Properties=species:S:1:pos:R:3:forces:R:3 energy=-47.62400256451218 pbc="F F F"
Xe       0.00000000       0.00000000       0.00000000       0.00000000       0.00000000       0.01091334
Xe       0.00000000       0.00000000       5.05939394       0.00000000       0.00000000      -0.01091334
2
Properties=species:S:1:pos:R:3:forces:R:3 energy=-47.62332505818708 pbc="F F F"
Xe       0.00000000       0.00000000       0.00000000       0.00000000       0.00000000       0.01216392
Xe       0.00000000       0.00000000       5.11818182       0.00000000       0.00000000      -0.01216392
2
Properties=species:S:1:pos:R:3:forces:R:3 energy=-47.62257803754291 pbc="F F F"
Xe       0.00000000       0.00000000       0.00000000       0.00000000       0.00000000       0.01323878
Xe       0.00000000       0.00000000       5.17696970       0.00000000       0.00000000      -0.01323878
2
Properties=species:S:1:pos:R:3:forces:R:3 energy=-47.621765962720694 pbc="F F F"
Xe       0.00000000       0.00000000       0.00000000       0.00000000       0.00000000       0.01433886
Xe       0.00000000       0.00000000       5.23575758       0.00000000       0.00000000      -0.01433886
2
Properties=species:S:1:pos:R:3:forces:R:3 energy=-47.62088946174117 pbc="F F F"
Xe       0.00000000       0.00000000       0.00000000       0.00000000       0.00000000       0.01555285
Xe       0.00000000       0.00000000       5.29454545       0.00000000       0.00000000      -0.01555285
2
Properties=species:S:1:pos:R:3:forces:R:3 energy=-47.619937707445914 pbc="F F F"
Xe       0.00000000       0.00000000       0.00000000       0.00000000       0.00000000       0.01685058
Xe       0.00000000       0.00000000       5.35333333       0.00000000       0.00000000      -0.01685058
2
Properties=species:S:1:pos:R:3:forces:R:3 energy=-47.618907476728445 pbc="F F F"
Xe       0.00000000       0.00000000       0.00000000       0.00000000       0.00000000       0.01826267
Xe       0.00000000       0.00000000       5.41212121       0.00000000       0.00000000      -0.01826267
2
Properties=species:S:1:pos:R:3:forces:R:3 energy=-47.61778788303366 pbc="F F F"
Xe       0.00000000       0.00000000       0.00000000       0.00000000       0.00000000       0.01970521
Xe       0.00000000       0.00000000       5.47090909       0.00000000       0.00000000      -0.01970521
2
Properties=species:S:1:pos:R:3:forces:R:3 energy=-47.61662141072213 pbc="F F F"
Xe       0.00000000       0.00000000       0.00000000       0.00000000       0.00000000       0.01942573
Xe       0.00000000       0.00000000       5.52969697       0.00000000       0.00000000      -0.01942573
2
Properties=species:S:1:pos:R:3:forces:R:3 energy=-47.61558402133683 pbc="F F F"
Xe       0.00000000       0.00000000       0.00000000       0.00000000       0.00000000       0.01530922
Xe       0.00000000       0.00000000       5.58848485       0.00000000       0.00000000      -0.01530922
2
Properties=species:S:1:pos:R:3:forces:R:3 energy=-47.6148478126222 pbc="F F F"
Xe       0.00000000       0.00000000       0.00000000       0.00000000       0.00000000       0.00998101
Xe       0.00000000       0.00000000       5.64727273       0.00000000       0.00000000      -0.00998101
2
Properties=species:S:1:pos:R:3:forces:R:3 energy=-47.61433688067105 pbc="F F F"
Xe       0.00000000       0.00000000       0.00000000       0.00000000       0.00000000       0.00810720
Xe       0.00000000       0.00000000       5.70606061       0.00000000       0.00000000      -0.00810720
2
Properties=species:S:1:pos:R:3:forces:R:3 energy=-47.613818875034724 pbc="F F F"
Xe       0.00000000       0.00000000       0.00000000       0.00000000       0.00000000       0.00974573
Xe       0.00000000       0.00000000       5.76484848       0.00000000       0.00000000      -0.00974573
2
Properties=species:S:1:pos:R:3:forces:R:3 energy=-47.61321398326202 pbc="F F F"
Xe       0.00000000       0.00000000       0.00000000       0.00000000       0.00000000       0.01029796
Xe       0.00000000       0.00000000       5.82363636       0.00000000       0.00000000      -0.01029796
2
Properties=species:S:1:pos:R:3:forces:R:3 energy=-47.61267885305109 pbc="F F F"
Xe       0.00000000       0.00000000       0.00000000       0.00000000       0.00000000       0.00763653
Xe       0.00000000       0.00000000       5.88242424       0.00000000       0.00000000      -0.00763653
2
Properties=species:S:1:pos:R:3:forces:R:3 energy=-47.61233194434166 pbc="F F F"
Xe       0.00000000       0.00000000       0.00000000       0.00000000       0.00000000       0.00424736
Xe       0.00000000       0.00000000       5.94121212       0.00000000       0.00000000      -0.00424736
2
Properties=species:S:1:pos:R:3:forces:R:3 energy=-47.612139080081654 pbc="F F F"
Xe       0.00000000       0.00000000       0.00000000       0.00000000       0.00000000       0.00278093
Xe       0.00000000       0.00000000       6.00000000       0.00000000       0.00000000      -0.00278093
