2
Properties=species:S:1:pos:R:3:forces:R:3 energy=1358795.9797201697 pbc="F F F"
Y        0.00000000       0.00000000       0.00000000       0.00000000       0.00000000 -238692.43750000
Y        0.00000000       0.00000000       0.18000000       0.00000000       0.00000000  238692.43750000
2
Properties=species:S:1:pos:R:3:forces:R:3 energy=1340760.8547201697 pbc="F F F"
Y        0.00000000       0.00000000       0.00000000       0.00000000       0.00000000 -415330.43750000
Y        0.00000000       0.00000000       0.23878788       0.00000000       0.00000000  415330.43750000
2
Properties=species:S:1:pos:R:3:forces:R:3 energy=1305319.3547201697 pbc="F F F"
Y        0.00000000       0.00000000       0.00000000       0.00000000       0.00000000 -830684.56250000
Y        0.00000000       0.00000000       0.29757576       0.00000000       0.00000000  830684.56250000
2
Properties=species:S:1:pos:R:3:forces:R:3 energy=1238336.9797201697 pbc="F F F"
Y        0.00000000       0.00000000       0.00000000       0.00000000       0.00000000 -1487508.87500000
Y        0.00000000       0.00000000       0.35636364       0.00000000       0.00000000 1487508.87500000
2
Properties=species:S:1:pos:R:3:forces:R:3 energy=1126453.3547201713 pbc="F F F"
Y        0.00000000       0.00000000       0.00000000       0.00000000       0.00000000 -2342540.25000000
Y        0.00000000       0.00000000       0.41515152       0.00000000       0.00000000 2342540.25000000
2
Properties=species:S:1:pos:R:3:forces:R:3 energy=961967.4172201712 pbc="F F F"
Y        0.00000000       0.00000000       0.00000000       0.00000000       0.00000000 -3240515.00000000
Y        0.00000000       0.00000000       0.47393939       0.00000000       0.00000000 3240515.00000000
2
Properties=species:S:1:pos:R:3:forces:R:3 energy=782320.7922201728 pbc="F F F"
Y        0.00000000       0.00000000       0.00000000       0.00000000       0.00000000 -3018369.25000000
Y        0.00000000       0.00000000       0.53272727       0.00000000       0.00000000 3018369.25000000
2
Properties=species:S:1:pos:R:3:forces:R:3 energy=590094.542220176 pbc="F F F"
Y        0.00000000       0.00000000       0.00000000       0.00000000       0.00000000 -3454924.00000000
Y        0.00000000       0.00000000       0.59151515       0.00000000       0.00000000 3454924.00000000
2
Properties=species:S:1:pos:R:3:forces:R:3 energy=386398.69847017917 pbc="F F F"
Y        0.00000000       0.00000000       0.00000000       0.00000000       0.00000000 -3371498.00000000
Y        0.00000000       0.00000000       0.65030303       0.00000000       0.00000000 3371498.00000000
2
Properties=species:S:1:pos:R:3:forces:R:3 energy=206221.99534518548 pbc="F F F"
Y        0.00000000       0.00000000       0.00000000       0.00000000       0.00000000 -2660867.50000000
Y        0.00000000       0.00000000       0.70909091       0.00000000       0.00000000 2660867.50000000
2
Properties=species:S:1:pos:R:3:forces:R:3 energy=81500.307845195 pbc="F F F"
Y        0.00000000       0.00000000       0.00000000       0.00000000       0.00000000 -1555859.12500000
Y        0.00000000       0.00000000       0.76787879       0.00000000       0.00000000 1555859.12500000
2
Properties=species:S:1:pos:R:3:forces:R:3 energy=21802.999251459245 pbc="F F F"
Y        0.00000000       0.00000000       0.00000000       0.00000000       0.00000000 -591326.06250000
Y        0.00000000       0.00000000       0.82666667       0.00000000       0.00000000  591326.06250000
2
Properties=species:S:1:pos:R:3:forces:R:3 energy=3297.7402182767128 pbc="F F F"
Y        0.00000000       0.00000000       0.00000000       0.00000000       0.00000000 -119401.32031250
Y        0.00000000       0.00000000       0.88545455       0.00000000       0.00000000  119401.32031250
2
Properties=species:S:1:pos:R:3:forces:R:3 energy=354.24384989543597 pbc="F F F"
Y        0.00000000       0.00000000       0.00000000       0.00000000       0.00000000  -15389.85156250
Y        0.00000000       0.00000000       0.94424242       0.00000000       0.00000000   15389.85156250
2
Properties=species:S:1:pos:R:3:forces:R:3 energy=87.83404463559826 pbc="F F F"
Y        0.00000000       0.00000000       0.00000000       0.00000000       0.00000000     872.44586182
Y        0.00000000       0.00000000       1.00303030       0.00000000       0.00000000    -872.44586182
2
Properties=species:S:1:pos:R:3:forces:R:3 energy=93.2811119486095 pbc="F F F"
Y        0.00000000       0.00000000       0.00000000       0.00000000       0.00000000      86.91427612
Y        0.00000000       0.00000000       1.06181818       0.00000000       0.00000000     -86.91427612
2
Properties=species:S:1:pos:R:3:forces:R:3 energy=91.8694985507783 pbc="F F F"
Y        0.00000000       0.00000000       0.00000000       0.00000000       0.00000000    -123.24732208
Y        0.00000000       0.00000000       1.12060606       0.00000000       0.00000000     123.24732208
2
Properties=species:S:1:pos:R:3:forces:R:3 energy=80.40724125580734 pbc="F F F"
Y        0.00000000       0.00000000       0.00000000       0.00000000       0.00000000    -260.24377441
Y        0.00000000       0.00000000       1.17939394       0.00000000       0.00000000     260.24377441
2
Properties=species:S:1:pos:R:3:forces:R:3 energy=61.96984817978846 pbc="F F F"
Y        0.00000000       0.00000000       0.00000000       0.00000000       0.00000000    -354.42678833
Y        0.00000000       0.00000000       1.23818182       0.00000000       0.00000000     354.42678833
2
Properties=species:S:1:pos:R:3:forces:R:3 energy=40.71445434357469 pbc="F F F"
Y        0.00000000       0.00000000       0.00000000       0.00000000       0.00000000    -354.02648926
Y        0.00000000       0.00000000       1.29696970       0.00000000       0.00000000     354.02648926
2
Properties=species:S:1:pos:R:3:forces:R:3 energy=21.22298037569704 pbc="F F F"
Y        0.00000000       0.00000000       0.00000000       0.00000000       0.00000000    -307.91693115
Y        0.00000000       0.00000000       1.35575758       0.00000000       0.00000000     307.91693115
2
Properties=species:S:1:pos:R:3:forces:R:3 energy=4.291515454854453 pbc="F F F"
Y        0.00000000       0.00000000       0.00000000       0.00000000       0.00000000    -271.60754395
Y        0.00000000       0.00000000       1.41454545       0.00000000       0.00000000     271.60754395
2
Properties=species:S:1:pos:R:3:forces:R:3 energy=-11.199248881129297 pbc="F F F"
Y        0.00000000       0.00000000       0.00000000       0.00000000       0.00000000    -255.13302612
Y        0.00000000       0.00000000       1.47333333       0.00000000       0.00000000     255.13302612
2
Properties=species:S:1:pos:R:3:forces:R:3 energy=-22.367335538284095 pbc="F F F"
Y        0.00000000       0.00000000       0.00000000       0.00000000       0.00000000     -88.45310974
Y        0.00000000       0.00000000       1.53212121       0.00000000       0.00000000      88.45310974
2
Properties=species:S:1:pos:R:3:forces:R:3 energy=-24.360590732198126 pbc="F F F"
Y        0.00000000       0.00000000       0.00000000       0.00000000       0.00000000     -14.04646873
Y        0.00000000       0.00000000       1.59090909       0.00000000       0.00000000      14.04646873
2
Properties=species:S:1:pos:R:3:forces:R:3 energy=-25.235052349864304 pbc="F F F"
Y        0.00000000       0.00000000       0.00000000       0.00000000       0.00000000     -16.19961166
Y        0.00000000       0.00000000       1.64969697       0.00000000       0.00000000      16.19961166
2
Properties=species:S:1:pos:R:3:forces:R:3 energy=-26.307860957834983 pbc="F F F"
Y        0.00000000       0.00000000       0.00000000       0.00000000       0.00000000     -20.82972336
Y        0.00000000       0.00000000       1.70848485       0.00000000       0.00000000      20.82972336
2
Properties=species:S:1:pos:R:3:forces:R:3 energy=-27.68307957116084 pbc="F F F"
Y        0.00000000       0.00000000       0.00000000       0.00000000       0.00000000     -25.33761406
Y        0.00000000       0.00000000       1.76727273       0.00000000       0.00000000      25.33761406
2
Properties=species:S:1:pos:R:3:forces:R:3 energy=-29.18669122148812 pbc="F F F"
Y        0.00000000       0.00000000       0.00000000       0.00000000       0.00000000     -25.00644493
Y        0.00000000       0.00000000       1.82606061       0.00000000       0.00000000      25.00644493
2
Properties=species:S:1:pos:R:3:forces:R:3 energy=-30.55486570328945 pbc="F F F"
Y        0.00000000       0.00000000       0.00000000       0.00000000       0.00000000     -21.18398666
Y        0.00000000       0.00000000       1.88484848       0.00000000       0.00000000      21.18398666
2
Properties=species:S:1:pos:R:3:forces:R:3 energy=-31.655650714959123 pbc="F F F"
Y        0.00000000       0.00000000       0.00000000       0.00000000       0.00000000     -16.21524429
Y        0.00000000       0.00000000       1.94363636       0.00000000       0.00000000      16.21524429
2
Properties=species:S:1:pos:R:3:forces:R:3 energy=-32.466690194661545 pbc="F F F"
Y        0.00000000       0.00000000       0.00000000       0.00000000       0.00000000     -11.49632645
Y        0.00000000       0.00000000       2.00242424       0.00000000       0.00000000      11.49632645
2
Properties=species:S:1:pos:R:3:forces:R:3 energy=-33.02680818263592 pbc="F F F"
Y        0.00000000       0.00000000       0.00000000       0.00000000       0.00000000      -7.75315094
Y        0.00000000       0.00000000       2.06121212       0.00000000       0.00000000       7.75315094
2
Properties=species:S:1:pos:R:3:forces:R:3 energy=-33.40178724647017 pbc="F F F"
Y        0.00000000       0.00000000       0.00000000       0.00000000       0.00000000      -5.19865179
Y        0.00000000       0.00000000       2.12000000       0.00000000       0.00000000       5.19865179
2
Properties=species:S:1:pos:R:3:forces:R:3 energy=-33.65886901209986 pbc="F F F"
Y        0.00000000       0.00000000       0.00000000       0.00000000       0.00000000      -3.70113564
Y        0.00000000       0.00000000       2.17878788       0.00000000       0.00000000       3.70113564
2
Properties=species:S:1:pos:R:3:forces:R:3 energy=-33.851535570035104 pbc="F F F"
Y        0.00000000       0.00000000       0.00000000       0.00000000       0.00000000      -2.94550705
Y        0.00000000       0.00000000       2.23757576       0.00000000       0.00000000       2.94550705
2
Properties=species:S:1:pos:R:3:forces:R:3 energy=-34.01230342352675 pbc="F F F"
Y        0.00000000       0.00000000       0.00000000       0.00000000       0.00000000      -2.55637813
Y        0.00000000       0.00000000       2.29636364       0.00000000       0.00000000       2.55637813
2
Properties=species:S:1:pos:R:3:forces:R:3 energy=-34.15354752653223 pbc="F F F"
Y        0.00000000       0.00000000       0.00000000       0.00000000       0.00000000      -2.24677777
Y        0.00000000       0.00000000       2.35515152       0.00000000       0.00000000       2.24677777
2
Properties=species:S:1:pos:R:3:forces:R:3 energy=-34.275413071966454 pbc="F F F"
Y        0.00000000       0.00000000       0.00000000       0.00000000       0.00000000      -1.88654578
Y        0.00000000       0.00000000       2.41393939       0.00000000       0.00000000       1.88654578
2
Properties=species:S:1:pos:R:3:forces:R:3 energy=-34.37384532490789 pbc="F F F"
Y        0.00000000       0.00000000       0.00000000       0.00000000       0.00000000      -1.45026982
Y        0.00000000       0.00000000       2.47272727       0.00000000       0.00000000       1.45026982
2
Properties=species:S:1:pos:R:3:forces:R:3 energy=-34.444801328732034 pbc="F F F"
Y        0.00000000       0.00000000       0.00000000       0.00000000       0.00000000      -0.95756912
Y        0.00000000       0.00000000       2.53151515       0.00000000       0.00000000       0.95756912
2
Properties=species:S:1:pos:R:3:forces:R:3 energy=-34.48632506241003 pbc="F F F"
Y        0.00000000       0.00000000       0.00000000       0.00000000       0.00000000      -0.46062523
Y        0.00000000       0.00000000       2.59030303       0.00000000       0.00000000       0.46062523
2
Properties=species:S:1:pos:R:3:forces:R:3 energy=-34.500416905098106 pbc="F F F"
Y        0.00000000       0.00000000       0.00000000       0.00000000       0.00000000      -0.03778919
Y        0.00000000       0.00000000       2.64909091       0.00000000       0.00000000       0.03778919
2
Properties=species:S:1:pos:R:3:forces:R:3 energy=-34.49356026076518 pbc="F F F"
Y        0.00000000       0.00000000       0.00000000       0.00000000       0.00000000       0.24489112
Y        0.00000000       0.00000000       2.70787879       0.00000000       0.00000000      -0.24489112
2
Properties=species:S:1:pos:R:3:forces:R:3 energy=-34.47453988872996 pbc="F F F"
Y        0.00000000       0.00000000       0.00000000       0.00000000       0.00000000       0.38104036
Y        0.00000000       0.00000000       2.76666667       0.00000000       0.00000000      -0.38104036
2
Properties=species:S:1:pos:R:3:forces:R:3 energy=-34.450509353093544 pbc="F F F"
Y        0.00000000       0.00000000       0.00000000       0.00000000       0.00000000       0.42839211
Y        0.00000000       0.00000000       2.82545455       0.00000000       0.00000000      -0.42839211
2
Properties=species:S:1:pos:R:3:forces:R:3 energy=-34.42441676574383 pbc="F F F"
Y        0.00000000       0.00000000       0.00000000       0.00000000       0.00000000       0.46195811
Y        0.00000000       0.00000000       2.88424242       0.00000000       0.00000000      -0.46195811
2
Properties=species:S:1:pos:R:3:forces:R:3 energy=-34.39560817218224 pbc="F F F"
Y        0.00000000       0.00000000       0.00000000       0.00000000       0.00000000       0.52374238
Y        0.00000000       0.00000000       2.94303030       0.00000000       0.00000000      -0.52374238
2
Properties=species:S:1:pos:R:3:forces:R:3 energy=-34.362335022487024 pbc="F F F"
Y        0.00000000       0.00000000       0.00000000       0.00000000       0.00000000       0.61030531
Y        0.00000000       0.00000000       3.00181818       0.00000000       0.00000000      -0.61030531
2
Properties=species:S:1:pos:R:3:forces:R:3 energy=-34.323929727184485 pbc="F F F"
Y        0.00000000       0.00000000       0.00000000       0.00000000       0.00000000       0.69296402
Y        0.00000000       0.00000000       3.06060606       0.00000000       0.00000000      -0.69296402
2
Properties=species:S:1:pos:R:3:forces:R:3 energy=-34.2814866453316 pbc="F F F"
Y        0.00000000       0.00000000       0.00000000       0.00000000       0.00000000       0.74429297
Y        0.00000000       0.00000000       3.11939394       0.00000000       0.00000000      -0.74429297
2
Properties=species:S:1:pos:R:3:forces:R:3 energy=-34.23724573023559 pbc="F F F"
Y        0.00000000       0.00000000       0.00000000       0.00000000       0.00000000       0.75426352
Y        0.00000000       0.00000000       3.17818182       0.00000000       0.00000000      -0.75426352
2
Properties=species:S:1:pos:R:3:forces:R:3 energy=-34.193411023434706 pbc="F F F"
Y        0.00000000       0.00000000       0.00000000       0.00000000       0.00000000       0.73373008
Y        0.00000000       0.00000000       3.23696970       0.00000000       0.00000000      -0.73373008
2
Properties=species:S:1:pos:R:3:forces:R:3 energy=-34.1510719307325 pbc="F F F"
Y        0.00000000       0.00000000       0.00000000       0.00000000       0.00000000       0.70849860
Y        0.00000000       0.00000000       3.29575758       0.00000000       0.00000000      -0.70849860
2
Properties=species:S:1:pos:R:3:forces:R:3 energy=-34.10961405961669 pbc="F F F"
Y        0.00000000       0.00000000       0.00000000       0.00000000       0.00000000       0.70818347
Y        0.00000000       0.00000000       3.35454545       0.00000000       0.00000000      -0.70818347
2
Properties=species:S:1:pos:R:3:forces:R:3 energy=-34.06687390366696 pbc="F F F"
Y        0.00000000       0.00000000       0.00000000       0.00000000       0.00000000       0.75492668
Y        0.00000000       0.00000000       3.41333333       0.00000000       0.00000000      -0.75492668
2
Properties=species:S:1:pos:R:3:forces:R:3 energy=-34.019771618607784 pbc="F F F"
Y        0.00000000       0.00000000       0.00000000       0.00000000       0.00000000       0.85636926
Y        0.00000000       0.00000000       3.47212121       0.00000000       0.00000000      -0.85636926
2
Properties=species:S:1:pos:R:3:forces:R:3 energy=-33.96527536749205 pbc="F F F"
Y        0.00000000       0.00000000       0.00000000       0.00000000       0.00000000       1.00387156
Y        0.00000000       0.00000000       3.53090909       0.00000000       0.00000000      -1.00387156
2
Properties=species:S:1:pos:R:3:forces:R:3 energy=-33.90127950433268 pbc="F F F"
Y        0.00000000       0.00000000       0.00000000       0.00000000       0.00000000       1.17466319
Y        0.00000000       0.00000000       3.58969697       0.00000000       0.00000000      -1.17466319
2
Properties=species:S:1:pos:R:3:forces:R:3 energy=-33.827309632067326 pbc="F F F"
Y        0.00000000       0.00000000       0.00000000       0.00000000       0.00000000       1.33795369
Y        0.00000000       0.00000000       3.64848485       0.00000000       0.00000000      -1.33795369
2
Properties=species:S:1:pos:R:3:forces:R:3 energy=-33.74470035365159 pbc="F F F"
Y        0.00000000       0.00000000       0.00000000       0.00000000       0.00000000       1.46428239
Y        0.00000000       0.00000000       3.70727273       0.00000000       0.00000000      -1.46428239
2
Properties=species:S:1:pos:R:3:forces:R:3 energy=-33.65627027021611 pbc="F F F"
Y        0.00000000       0.00000000       0.00000000       0.00000000       0.00000000       1.53355122
Y        0.00000000       0.00000000       3.76606061       0.00000000       0.00000000      -1.53355122
2
Properties=species:S:1:pos:R:3:forces:R:3 energy=-33.56566073408215 pbc="F F F"
Y        0.00000000       0.00000000       0.00000000       0.00000000       0.00000000       1.53841698
Y        0.00000000       0.00000000       3.82484848       0.00000000       0.00000000      -1.53841698
2
Properties=species:S:1:pos:R:3:forces:R:3 energy=-33.47656655154776 pbc="F F F"
Y        0.00000000       0.00000000       0.00000000       0.00000000       0.00000000       1.48361492
Y        0.00000000       0.00000000       3.88363636       0.00000000       0.00000000      -1.48361492
2
Properties=species:S:1:pos:R:3:forces:R:3 energy=-33.39212896387422 pbc="F F F"
Y        0.00000000       0.00000000       0.00000000       0.00000000       0.00000000       1.38266301
Y        0.00000000       0.00000000       3.94242424       0.00000000       0.00000000      -1.38266301
2
Properties=species:S:1:pos:R:3:forces:R:3 energy=-33.31455107306453 pbc="F F F"
Y        0.00000000       0.00000000       0.00000000       0.00000000       0.00000000       1.25351942
Y        0.00000000       0.00000000       4.00121212       0.00000000       0.00000000      -1.25351942
2
Properties=species:S:1:pos:R:3:forces:R:3 energy=-33.24494202340449 pbc="F F F"
Y        0.00000000       0.00000000       0.00000000       0.00000000       0.00000000       1.11440921
Y        0.00000000       0.00000000       4.06000000       0.00000000       0.00000000      -1.11440921
2
Properties=species:S:1:pos:R:3:forces:R:3 energy=-33.18341470927546 pbc="F F F"
Y        0.00000000       0.00000000       0.00000000       0.00000000       0.00000000       0.98067129
Y        0.00000000       0.00000000       4.11878788       0.00000000       0.00000000      -0.98067129
2
Properties=species:S:1:pos:R:3:forces:R:3 energy=-33.12932126253888 pbc="F F F"
Y        0.00000000       0.00000000       0.00000000       0.00000000       0.00000000       0.86289334
Y        0.00000000       0.00000000       4.17757576       0.00000000       0.00000000      -0.86289334
2
Properties=species:S:1:pos:R:3:forces:R:3 energy=-33.08153630948754 pbc="F F F"
Y        0.00000000       0.00000000       0.00000000       0.00000000       0.00000000       0.76660925
Y        0.00000000       0.00000000       4.23636364       0.00000000       0.00000000      -0.76660925
2
Properties=species:S:1:pos:R:3:forces:R:3 energy=-33.03873586823409 pbc="F F F"
Y        0.00000000       0.00000000       0.00000000       0.00000000       0.00000000       0.69310135
Y        0.00000000       0.00000000       4.29515152       0.00000000       0.00000000      -0.69310135
2
Properties=species:S:1:pos:R:3:forces:R:3 energy=-32.99963019413191 pbc="F F F"
Y        0.00000000       0.00000000       0.00000000       0.00000000       0.00000000       0.64058715
Y        0.00000000       0.00000000       4.35393939       0.00000000       0.00000000      -0.64058715
2
Properties=species:S:1:pos:R:3:forces:R:3 energy=-32.963085929283174 pbc="F F F"
Y        0.00000000       0.00000000       0.00000000       0.00000000       0.00000000       0.60514039
Y        0.00000000       0.00000000       4.41272727       0.00000000       0.00000000      -0.60514039
2
Properties=species:S:1:pos:R:3:forces:R:3 energy=-32.928251962206 pbc="F F F"
Y        0.00000000       0.00000000       0.00000000       0.00000000       0.00000000       0.58129895
Y        0.00000000       0.00000000       4.47151515       0.00000000       0.00000000      -0.58129895
2
Properties=species:S:1:pos:R:3:forces:R:3 energy=-32.894635781968425 pbc="F F F"
Y        0.00000000       0.00000000       0.00000000       0.00000000       0.00000000       0.56263453
Y        0.00000000       0.00000000       4.53030303       0.00000000       0.00000000      -0.56263453
2
Properties=species:S:1:pos:R:3:forces:R:3 energy=-32.862126328358116 pbc="F F F"
Y        0.00000000       0.00000000       0.00000000       0.00000000       0.00000000       0.54264736
Y        0.00000000       0.00000000       4.58909091       0.00000000       0.00000000      -0.54264736
2
Properties=species:S:1:pos:R:3:forces:R:3 energy=-32.83096733651883 pbc="F F F"
Y        0.00000000       0.00000000       0.00000000       0.00000000       0.00000000       0.51606429
Y        0.00000000       0.00000000       4.64787879       0.00000000       0.00000000      -0.51606429
2
Properties=species:S:1:pos:R:3:forces:R:3 energy=-32.80163525713448 pbc="F F F"
Y        0.00000000       0.00000000       0.00000000       0.00000000       0.00000000       0.48013890
Y        0.00000000       0.00000000       4.70666667       0.00000000       0.00000000      -0.48013890
2
Properties=species:S:1:pos:R:3:forces:R:3 energy=-32.77468664319589 pbc="F F F"
Y        0.00000000       0.00000000       0.00000000       0.00000000       0.00000000       0.43552417
Y        0.00000000       0.00000000       4.76545455       0.00000000       0.00000000      -0.43552417
2
Properties=species:S:1:pos:R:3:forces:R:3 energy=-32.75052169579117 pbc="F F F"
Y        0.00000000       0.00000000       0.00000000       0.00000000       0.00000000       0.38616022
Y        0.00000000       0.00000000       4.82424242       0.00000000       0.00000000      -0.38616022
2
Properties=species:S:1:pos:R:3:forces:R:3 energy=-32.72925452638477 pbc="F F F"
Y        0.00000000       0.00000000       0.00000000       0.00000000       0.00000000       0.33827591
Y        0.00000000       0.00000000       4.88303030       0.00000000       0.00000000      -0.33827591
2
Properties=species:S:1:pos:R:3:forces:R:3 energy=-32.71058348878873 pbc="F F F"
Y        0.00000000       0.00000000       0.00000000       0.00000000       0.00000000       0.29888302
Y        0.00000000       0.00000000       4.94181818       0.00000000       0.00000000      -0.29888302
2
Properties=species:S:1:pos:R:3:forces:R:3 energy=-32.693821665062515 pbc="F F F"
Y        0.00000000       0.00000000       0.00000000       0.00000000       0.00000000       0.27431327
Y        0.00000000       0.00000000       5.00060606       0.00000000       0.00000000      -0.27431327
2
Properties=species:S:1:pos:R:3:forces:R:3 energy=-32.67795413665722 pbc="F F F"
Y        0.00000000       0.00000000       0.00000000       0.00000000       0.00000000       0.26892227
Y        0.00000000       0.00000000       5.05939394       0.00000000       0.00000000      -0.26892227
2
Properties=species:S:1:pos:R:3:forces:R:3 energy=-32.66180202273358 pbc="F F F"
Y        0.00000000       0.00000000       0.00000000       0.00000000       0.00000000       0.28374287
Y        0.00000000       0.00000000       5.11818182       0.00000000       0.00000000      -0.28374287
2
Properties=species:S:1:pos:R:3:forces:R:3 energy=-32.64427037212785 pbc="F F F"
Y        0.00000000       0.00000000       0.00000000       0.00000000       0.00000000       0.31479168
Y        0.00000000       0.00000000       5.17696970       0.00000000       0.00000000      -0.31479168
2
Properties=species:S:1:pos:R:3:forces:R:3 energy=-32.62467632551907 pbc="F F F"
Y        0.00000000       0.00000000       0.00000000       0.00000000       0.00000000       0.35146466
Y        0.00000000       0.00000000       5.23575758       0.00000000       0.00000000      -0.35146466
2
Properties=species:S:1:pos:R:3:forces:R:3 energy=-32.603157183498396 pbc="F F F"
Y        0.00000000       0.00000000       0.00000000       0.00000000       0.00000000       0.37757209
Y        0.00000000       0.00000000       5.29454545       0.00000000       0.00000000      -0.37757209
2
Properties=species:S:1:pos:R:3:forces:R:3 energy=-32.58073155259914 pbc="F F F"
Y        0.00000000       0.00000000       0.00000000       0.00000000       0.00000000       0.38176215
Y        0.00000000       0.00000000       5.35333333       0.00000000       0.00000000      -0.38176215
2
Properties=species:S:1:pos:R:3:forces:R:3 energy=-32.55841814389273 pbc="F F F"
Y        0.00000000       0.00000000       0.00000000       0.00000000       0.00000000       0.37938204
Y        0.00000000       0.00000000       5.41212121       0.00000000       0.00000000      -0.37938204
2
Properties=species:S:1:pos:R:3:forces:R:3 energy=-32.53551526215854 pbc="F F F"
Y        0.00000000       0.00000000       0.00000000       0.00000000       0.00000000       0.40590340
Y        0.00000000       0.00000000       5.47090909       0.00000000       0.00000000      -0.40590340
2
Properties=species:S:1:pos:R:3:forces:R:3 energy=-32.510501131459414 pbc="F F F"
Y        0.00000000       0.00000000       0.00000000       0.00000000       0.00000000       0.43993008
Y        0.00000000       0.00000000       5.52969697       0.00000000       0.00000000      -0.43993008
2
Properties=species:S:1:pos:R:3:forces:R:3 energy=-32.48493634628347 pbc="F F F"
Y        0.00000000       0.00000000       0.00000000       0.00000000       0.00000000       0.41914013
Y        0.00000000       0.00000000       5.58848485       0.00000000       0.00000000      -0.41914013
2
Properties=species:S:1:pos:R:3:forces:R:3 energy=-32.46197612060359 pbc="F F F"
Y        0.00000000       0.00000000       0.00000000       0.00000000       0.00000000       0.36182740
Y        0.00000000       0.00000000       5.64727273       0.00000000       0.00000000      -0.36182740
2
Properties=species:S:1:pos:R:3:forces:R:3 energy=-32.441670584013984 pbc="F F F"
Y        0.00000000       0.00000000       0.00000000       0.00000000       0.00000000       0.33985192
Y        0.00000000       0.00000000       5.70606061       0.00000000       0.00000000      -0.33985192
2
Properties=species:S:1:pos:R:3:forces:R:3 energy=-32.42102198318227 pbc="F F F"
Y        0.00000000       0.00000000       0.00000000       0.00000000       0.00000000       0.36185640
Y        0.00000000       0.00000000       5.76484848       0.00000000       0.00000000      -0.36185640
2
Properties=species:S:1:pos:R:3:forces:R:3 energy=-32.400332388784584 pbc="F F F"
Y        0.00000000       0.00000000       0.00000000       0.00000000       0.00000000       0.32519376
Y        0.00000000       0.00000000       5.82363636       0.00000000       0.00000000      -0.32519376
2
Properties=species:S:1:pos:R:3:forces:R:3 energy=-32.38478291206541 pbc="F F F"
Y        0.00000000       0.00000000       0.00000000       0.00000000       0.00000000       0.19513381
Y        0.00000000       0.00000000       5.88242424       0.00000000       0.00000000      -0.19513381
2
Properties=species:S:1:pos:R:3:forces:R:3 energy=-32.37744139167616 pbc="F F F"
Y        0.00000000       0.00000000       0.00000000       0.00000000       0.00000000       0.06154972
Y        0.00000000       0.00000000       5.94121212       0.00000000       0.00000000      -0.06154972
2
Properties=species:S:1:pos:R:3:forces:R:3 energy=-32.375916910508856 pbc="F F F"
Y        0.00000000       0.00000000       0.00000000       0.00000000       0.00000000       0.00815023
Y        0.00000000       0.00000000       6.00000000       0.00000000       0.00000000      -0.00815023
