2
Properties=species:S:1:pos:R:3:forces:R:3 energy=1386291.6047201697 pbc="F F F"
Y        0.00000000       0.00000000       0.00000000       0.00000000       0.00000000 -684955.43750000
Y        0.00000000       0.00000000       0.10000000       0.00000000       0.00000000  684955.43750000
2
Properties=species:S:1:pos:R:3:forces:R:3 energy=1363630.6047201697 pbc="F F F"
Y        0.00000000       0.00000000       0.00000000       0.00000000       0.00000000 -241381.75000000
Y        0.00000000       0.00000000       0.15959596       0.00000000       0.00000000  241381.75000000
2
Properties=species:S:1:pos:R:3:forces:R:3 energy=1348027.7297201697 pbc="F F F"
Y        0.00000000       0.00000000       0.00000000       0.00000000       0.00000000 -329587.71875000
Y        0.00000000       0.00000000       0.21919192       0.00000000       0.00000000  329587.71875000
2
Properties=species:S:1:pos:R:3:forces:R:3 energy=1319393.6047201697 pbc="F F F"
Y        0.00000000       0.00000000       0.00000000       0.00000000       0.00000000 -671687.18750000
Y        0.00000000       0.00000000       0.27878788       0.00000000       0.00000000  671687.18750000
2
Properties=species:S:1:pos:R:3:forces:R:3 energy=1263031.8547201697 pbc="F F F"
Y        0.00000000       0.00000000       0.00000000       0.00000000       0.00000000 -1261866.00000000
Y        0.00000000       0.00000000       0.33838384       0.00000000       0.00000000 1261866.00000000
2
Properties=species:S:1:pos:R:3:forces:R:3 energy=1164397.1047201713 pbc="F F F"
Y        0.00000000       0.00000000       0.00000000       0.00000000       0.00000000 -2078826.25000000
Y        0.00000000       0.00000000       0.39797980       0.00000000       0.00000000 2078826.25000000
2
Properties=species:S:1:pos:R:3:forces:R:3 energy=1013032.7922201712 pbc="F F F"
Y        0.00000000       0.00000000       0.00000000       0.00000000       0.00000000 -3000582.50000000
Y        0.00000000       0.00000000       0.45757576       0.00000000       0.00000000 3000582.50000000
2
Properties=species:S:1:pos:R:3:forces:R:3 energy=827980.0422201728 pbc="F F F"
Y        0.00000000       0.00000000       0.00000000       0.00000000       0.00000000 -2847955.50000000
Y        0.00000000       0.00000000       0.51717172       0.00000000       0.00000000 2847955.50000000
2
Properties=species:S:1:pos:R:3:forces:R:3 energy=640572.854720176 pbc="F F F"
Y        0.00000000       0.00000000       0.00000000       0.00000000       0.00000000 -3385111.50000000
Y        0.00000000       0.00000000       0.57676768       0.00000000       0.00000000 3385111.50000000
2
Properties=species:S:1:pos:R:3:forces:R:3 energy=433975.57347017917 pbc="F F F"
Y        0.00000000       0.00000000       0.00000000       0.00000000       0.00000000 -3448506.00000000
Y        0.00000000       0.00000000       0.63636364       0.00000000       0.00000000 3448506.00000000
2
Properties=species:S:1:pos:R:3:forces:R:3 energy=242551.4953451839 pbc="F F F"
Y        0.00000000       0.00000000       0.00000000       0.00000000       0.00000000 -2868291.75000000
Y        0.00000000       0.00000000       0.69595960       0.00000000       0.00000000 2868291.75000000
2
Properties=species:S:1:pos:R:3:forces:R:3 energy=102149.96409519183 pbc="F F F"
Y        0.00000000       0.00000000       0.00000000       0.00000000       0.00000000 -1795893.87500000
Y        0.00000000       0.00000000       0.75555556       0.00000000       0.00000000 1795893.87500000
2
Properties=species:S:1:pos:R:3:forces:R:3 energy=29450.878157704494 pbc="F F F"
Y        0.00000000       0.00000000       0.00000000       0.00000000       0.00000000 -739651.62500000
Y        0.00000000       0.00000000       0.81515152       0.00000000       0.00000000  739651.62500000
2
Properties=species:S:1:pos:R:3:forces:R:3 energy=4833.63938819542 pbc="F F F"
Y        0.00000000       0.00000000       0.00000000       0.00000000       0.00000000 -169811.12500000
Y        0.00000000       0.00000000       0.87474747       0.00000000       0.00000000  169811.12500000
2
Properties=species:S:1:pos:R:3:forces:R:3 energy=532.5479575566999 pbc="F F F"
Y        0.00000000       0.00000000       0.00000000       0.00000000       0.00000000  -21172.42968750
Y        0.00000000       0.00000000       0.93434343       0.00000000       0.00000000   21172.42968750
2
Properties=species:S:1:pos:R:3:forces:R:3 energy=73.59473340941699 pbc="F F F"
Y        0.00000000       0.00000000       0.00000000       0.00000000       0.00000000    1743.32910156
Y        0.00000000       0.00000000       0.99393939       0.00000000       0.00000000   -1743.32910156
2
Properties=species:S:1:pos:R:3:forces:R:3 energy=92.43309710914698 pbc="F F F"
Y        0.00000000       0.00000000       0.00000000       0.00000000       0.00000000     117.08106232
Y        0.00000000       0.00000000       1.05353535       0.00000000       0.00000000    -117.08106232
2
Properties=species:S:1:pos:R:3:forces:R:3 energy=92.70985346070843 pbc="F F F"
Y        0.00000000       0.00000000       0.00000000       0.00000000       0.00000000    -101.30292511
Y        0.00000000       0.00000000       1.11313131       0.00000000       0.00000000     101.30292511
2
Properties=species:S:1:pos:R:3:forces:R:3 energy=82.09567203085277 pbc="F F F"
Y        0.00000000       0.00000000       0.00000000       0.00000000       0.00000000    -246.15800476
Y        0.00000000       0.00000000       1.17272727       0.00000000       0.00000000     246.15800476
2
Properties=species:S:1:pos:R:3:forces:R:3 energy=64.03088332495108 pbc="F F F"
Y        0.00000000       0.00000000       0.00000000       0.00000000       0.00000000    -348.99673462
Y        0.00000000       0.00000000       1.23232323       0.00000000       0.00000000     348.99673462
2
Properties=species:S:1:pos:R:3:forces:R:3 energy=42.51032225082527 pbc="F F F"
Y        0.00000000       0.00000000       0.00000000       0.00000000       0.00000000    -357.06039429
Y        0.00000000       0.00000000       1.29191919       0.00000000       0.00000000     357.06039429
2
Properties=species:S:1:pos:R:3:forces:R:3 energy=22.53635392711567 pbc="F F F"
Y        0.00000000       0.00000000       0.00000000       0.00000000       0.00000000    -311.24218750
Y        0.00000000       0.00000000       1.35151515       0.00000000       0.00000000     311.24218750
2
Properties=species:S:1:pos:R:3:forces:R:3 energy=5.226955504075816 pbc="F F F"
Y        0.00000000       0.00000000       0.00000000       0.00000000       0.00000000    -273.08798218
Y        0.00000000       0.00000000       1.41111111       0.00000000       0.00000000     273.08798218
2
Properties=species:S:1:pos:R:3:forces:R:3 energy=-10.527206047120899 pbc="F F F"
Y        0.00000000       0.00000000       0.00000000       0.00000000       0.00000000    -256.67977905
Y        0.00000000       0.00000000       1.47070707       0.00000000       0.00000000     256.67977905
2
Properties=species:S:1:pos:R:3:forces:R:3 energy=-22.200711481741518 pbc="F F F"
Y        0.00000000       0.00000000       0.00000000       0.00000000       0.00000000     -94.89117432
Y        0.00000000       0.00000000       1.53030303       0.00000000       0.00000000      94.89117432
2
Properties=species:S:1:pos:R:3:forces:R:3 energy=-24.346380992803226 pbc="F F F"
Y        0.00000000       0.00000000       0.00000000       0.00000000       0.00000000     -14.09462929
Y        0.00000000       0.00000000       1.58989899       0.00000000       0.00000000      14.09462929
2
Properties=species:S:1:pos:R:3:forces:R:3 energy=-25.23176408398916 pbc="F F F"
Y        0.00000000       0.00000000       0.00000000       0.00000000       0.00000000     -16.18941689
Y        0.00000000       0.00000000       1.64949495       0.00000000       0.00000000      16.18941689
2
Properties=species:S:1:pos:R:3:forces:R:3 energy=-26.320500950888988 pbc="F F F"
Y        0.00000000       0.00000000       0.00000000       0.00000000       0.00000000     -20.88965416
Y        0.00000000       0.00000000       1.70909091       0.00000000       0.00000000      20.88965416
2
Properties=species:S:1:pos:R:3:forces:R:3 energy=-27.71895105789121 pbc="F F F"
Y        0.00000000       0.00000000       0.00000000       0.00000000       0.00000000     -25.39027786
Y        0.00000000       0.00000000       1.76868687       0.00000000       0.00000000      25.39027786
2
Properties=species:S:1:pos:R:3:forces:R:3 energy=-29.242149255489732 pbc="F F F"
Y        0.00000000       0.00000000       0.00000000       0.00000000       0.00000000     -24.90785217
Y        0.00000000       0.00000000       1.82828283       0.00000000       0.00000000      24.90785217
2
Properties=species:S:1:pos:R:3:forces:R:3 energy=-30.61868934463591 pbc="F F F"
Y        0.00000000       0.00000000       0.00000000       0.00000000       0.00000000     -20.94039726
Y        0.00000000       0.00000000       1.88787879       0.00000000       0.00000000      20.94039726
2
Properties=species:S:1:pos:R:3:forces:R:3 energy=-31.717263712313667 pbc="F F F"
Y        0.00000000       0.00000000       0.00000000       0.00000000       0.00000000     -15.88864040
Y        0.00000000       0.00000000       1.94747475       0.00000000       0.00000000      15.88864040
2
Properties=species:S:1:pos:R:3:forces:R:3 energy=-32.519321450874216 pbc="F F F"
Y        0.00000000       0.00000000       0.00000000       0.00000000       0.00000000     -11.15926075
Y        0.00000000       0.00000000       2.00707071       0.00000000       0.00000000      11.15926075
2
Properties=species:S:1:pos:R:3:forces:R:3 energy=-33.0683081094619 pbc="F F F"
Y        0.00000000       0.00000000       0.00000000       0.00000000       0.00000000      -7.46621609
Y        0.00000000       0.00000000       2.06666667       0.00000000       0.00000000       7.46621609
2
Properties=species:S:1:pos:R:3:forces:R:3 energy=-33.43369698635651 pbc="F F F"
Y        0.00000000       0.00000000       0.00000000       0.00000000       0.00000000      -4.99323177
Y        0.00000000       0.00000000       2.12626263       0.00000000       0.00000000       4.99323177
2
Properties=species:S:1:pos:R:3:forces:R:3 energy=-33.68459888064336 pbc="F F F"
Y        0.00000000       0.00000000       0.00000000       0.00000000       0.00000000      -3.57841730
Y        0.00000000       0.00000000       2.18585859       0.00000000       0.00000000       3.57841730
2
Properties=species:S:1:pos:R:3:forces:R:3 energy=-33.874480636714786 pbc="F F F"
Y        0.00000000       0.00000000       0.00000000       0.00000000       0.00000000      -2.87990546
Y        0.00000000       0.00000000       2.24545455       0.00000000       0.00000000       2.87990546
2
Properties=species:S:1:pos:R:3:forces:R:3 energy=-34.034310014490465 pbc="F F F"
Y        0.00000000       0.00000000       0.00000000       0.00000000       0.00000000      -2.51043725
Y        0.00000000       0.00000000       2.30505051       0.00000000       0.00000000       2.51043725
2
Properties=species:S:1:pos:R:3:forces:R:3 energy=-34.17462711438217 pbc="F F F"
Y        0.00000000       0.00000000       0.00000000       0.00000000       0.00000000      -2.19352746
Y        0.00000000       0.00000000       2.36464646       0.00000000       0.00000000       2.19352746
2
Properties=species:S:1:pos:R:3:forces:R:3 energy=-34.29448230485394 pbc="F F F"
Y        0.00000000       0.00000000       0.00000000       0.00000000       0.00000000      -1.81542850
Y        0.00000000       0.00000000       2.42424242       0.00000000       0.00000000       1.81542850
2
Properties=species:S:1:pos:R:3:forces:R:3 energy=-34.3894623866507 pbc="F F F"
Y        0.00000000       0.00000000       0.00000000       0.00000000       0.00000000      -1.36035693
Y        0.00000000       0.00000000       2.48383838       0.00000000       0.00000000       1.36035693
2
Properties=species:S:1:pos:R:3:forces:R:3 energy=-34.455600689173686 pbc="F F F"
Y        0.00000000       0.00000000       0.00000000       0.00000000       0.00000000      -0.85485178
Y        0.00000000       0.00000000       2.54343434       0.00000000       0.00000000       0.85485178
2
Properties=species:S:1:pos:R:3:forces:R:3 energy=-34.49154411630264 pbc="F F F"
Y        0.00000000       0.00000000       0.00000000       0.00000000       0.00000000      -0.35997152
Y        0.00000000       0.00000000       2.60303030       0.00000000       0.00000000       0.35997152
2
Properties=species:S:1:pos:R:3:forces:R:3 energy=-34.5003842438489 pbc="F F F"
Y        0.00000000       0.00000000       0.00000000       0.00000000       0.00000000       0.04114633
Y        0.00000000       0.00000000       2.66262626       0.00000000       0.00000000      -0.04114633
2
Properties=species:S:1:pos:R:3:forces:R:3 energy=-34.489711027844145 pbc="F F F"
Y        0.00000000       0.00000000       0.00000000       0.00000000       0.00000000       0.29026669
Y        0.00000000       0.00000000       2.72222222       0.00000000       0.00000000      -0.29026669
2
Properties=species:S:1:pos:R:3:forces:R:3 energy=-34.46863011675988 pbc="F F F"
Y        0.00000000       0.00000000       0.00000000       0.00000000       0.00000000       0.39854476
Y        0.00000000       0.00000000       2.78181818       0.00000000       0.00000000      -0.39854476
2
Properties=species:S:1:pos:R:3:forces:R:3 energy=-34.44360919105061 pbc="F F F"
Y        0.00000000       0.00000000       0.00000000       0.00000000       0.00000000       0.43624064
Y        0.00000000       0.00000000       2.84141414       0.00000000       0.00000000      -0.43624064
2
Properties=species:S:1:pos:R:3:forces:R:3 energy=-34.41655588950999 pbc="F F F"
Y        0.00000000       0.00000000       0.00000000       0.00000000       0.00000000       0.47609749
Y        0.00000000       0.00000000       2.90101010       0.00000000       0.00000000      -0.47609749
2
Properties=species:S:1:pos:R:3:forces:R:3 energy=-34.38619595086156 pbc="F F F"
Y        0.00000000       0.00000000       0.00000000       0.00000000       0.00000000       0.54809821
Y        0.00000000       0.00000000       2.96060606       0.00000000       0.00000000      -0.54809821
2
Properties=species:S:1:pos:R:3:forces:R:3 energy=-34.350859099017704 pbc="F F F"
Y        0.00000000       0.00000000       0.00000000       0.00000000       0.00000000       0.63808995
Y        0.00000000       0.00000000       3.02020202       0.00000000       0.00000000      -0.63808995
2
Properties=species:S:1:pos:R:3:forces:R:3 energy=-34.31042231740244 pbc="F F F"
Y        0.00000000       0.00000000       0.00000000       0.00000000       0.00000000       0.71408772
Y        0.00000000       0.00000000       3.07979798       0.00000000       0.00000000      -0.71408772
2
Properties=species:S:1:pos:R:3:forces:R:3 energy=-34.2665140616483 pbc="F F F"
Y        0.00000000       0.00000000       0.00000000       0.00000000       0.00000000       0.75219262
Y        0.00000000       0.00000000       3.13939394       0.00000000       0.00000000      -0.75219262
2
Properties=species:S:1:pos:R:3:forces:R:3 energy=-34.22159661867579 pbc="F F F"
Y        0.00000000       0.00000000       0.00000000       0.00000000       0.00000000       0.74937052
Y        0.00000000       0.00000000       3.19898990       0.00000000       0.00000000      -0.74937052
2
Properties=species:S:1:pos:R:3:forces:R:3 energy=-34.17766164495532 pbc="F F F"
Y        0.00000000       0.00000000       0.00000000       0.00000000       0.00000000       0.72338456
Y        0.00000000       0.00000000       3.25858586       0.00000000       0.00000000      -0.72338456
2
Properties=species:S:1:pos:R:3:forces:R:3 energy=-34.13524378311914 pbc="F F F"
Y        0.00000000       0.00000000       0.00000000       0.00000000       0.00000000       0.70397282
Y        0.00000000       0.00000000       3.31818182       0.00000000       0.00000000      -0.70397282
2
Properties=species:S:1:pos:R:3:forces:R:3 energy=-34.09303775724051 pbc="F F F"
Y        0.00000000       0.00000000       0.00000000       0.00000000       0.00000000       0.72024459
Y        0.00000000       0.00000000       3.37777778       0.00000000       0.00000000      -0.72024459
2
Properties=species:S:1:pos:R:3:forces:R:3 energy=-34.048320485530034 pbc="F F F"
Y        0.00000000       0.00000000       0.00000000       0.00000000       0.00000000       0.78993046
Y        0.00000000       0.00000000       3.43737374       0.00000000       0.00000000      -0.78993046
2
Properties=species:S:1:pos:R:3:forces:R:3 energy=-33.99779183056899 pbc="F F F"
Y        0.00000000       0.00000000       0.00000000       0.00000000       0.00000000       0.91413814
Y        0.00000000       0.00000000       3.49696970       0.00000000       0.00000000      -0.91413814
2
Properties=species:S:1:pos:R:3:forces:R:3 energy=-33.938580956484664 pbc="F F F"
Y        0.00000000       0.00000000       0.00000000       0.00000000       0.00000000       1.07727480
Y        0.00000000       0.00000000       3.55656566       0.00000000       0.00000000      -1.07727480
2
Properties=species:S:1:pos:R:3:forces:R:3 energy=-33.86917590732842 pbc="F F F"
Y        0.00000000       0.00000000       0.00000000       0.00000000       0.00000000       1.25100243
Y        0.00000000       0.00000000       3.61616162       0.00000000       0.00000000      -1.25100243
2
Properties=species:S:1:pos:R:3:forces:R:3 energy=-33.78991771944266 pbc="F F F"
Y        0.00000000       0.00000000       0.00000000       0.00000000       0.00000000       1.40265310
Y        0.00000000       0.00000000       3.67575758       0.00000000       0.00000000      -1.40265310
2
Properties=species:S:1:pos:R:3:forces:R:3 energy=-33.702974997101364 pbc="F F F"
Y        0.00000000       0.00000000       0.00000000       0.00000000       0.00000000       1.50524616
Y        0.00000000       0.00000000       3.73535354       0.00000000       0.00000000      -1.50524616
2
Properties=species:S:1:pos:R:3:forces:R:3 energy=-33.61178136995275 pbc="F F F"
Y        0.00000000       0.00000000       0.00000000       0.00000000       0.00000000       1.54394984
Y        0.00000000       0.00000000       3.79494949       0.00000000       0.00000000      -1.54394984
2
Properties=species:S:1:pos:R:3:forces:R:3 energy=-33.52024994554652 pbc="F F F"
Y        0.00000000       0.00000000       0.00000000       0.00000000       0.00000000       1.51749921
Y        0.00000000       0.00000000       3.85454545       0.00000000       0.00000000      -1.51749921
2
Properties=species:S:1:pos:R:3:forces:R:3 energy=-33.43200730598639 pbc="F F F"
Y        0.00000000       0.00000000       0.00000000       0.00000000       0.00000000       1.43591011
Y        0.00000000       0.00000000       3.91414141       0.00000000       0.00000000      -1.43591011
2
Properties=species:S:1:pos:R:3:forces:R:3 energy=-33.34985811093443 pbc="F F F"
Y        0.00000000       0.00000000       0.00000000       0.00000000       0.00000000       1.31618547
Y        0.00000000       0.00000000       3.97373737       0.00000000       0.00000000      -1.31618547
2
Properties=species:S:1:pos:R:3:forces:R:3 energy=-33.27549956296649 pbc="F F F"
Y        0.00000000       0.00000000       0.00000000       0.00000000       0.00000000       1.17766786
Y        0.00000000       0.00000000       4.03333333       0.00000000       0.00000000      -1.17766786
2
Properties=species:S:1:pos:R:3:forces:R:3 energy=-33.20950787079961 pbc="F F F"
Y        0.00000000       0.00000000       0.00000000       0.00000000       0.00000000       1.03803515
Y        0.00000000       0.00000000       4.09292929       0.00000000       0.00000000      -1.03803515
2
Properties=species:S:1:pos:R:3:forces:R:3 energy=-33.15152565983107 pbc="F F F"
Y        0.00000000       0.00000000       0.00000000       0.00000000       0.00000000       0.91066450
Y        0.00000000       0.00000000       4.15252525       0.00000000       0.00000000      -0.91066450
2
Properties=species:S:1:pos:R:3:forces:R:3 energy=-33.10056128933766 pbc="F F F"
Y        0.00000000       0.00000000       0.00000000       0.00000000       0.00000000       0.80354691
Y        0.00000000       0.00000000       4.21212121       0.00000000       0.00000000      -0.80354691
2
Properties=species:S:1:pos:R:3:forces:R:3 energy=-33.055287045098154 pbc="F F F"
Y        0.00000000       0.00000000       0.00000000       0.00000000       0.00000000       0.71973312
Y        0.00000000       0.00000000       4.27171717       0.00000000       0.00000000      -0.71973312
2
Properties=species:S:1:pos:R:3:forces:R:3 energy=-33.014321636067194 pbc="F F F"
Y        0.00000000       0.00000000       0.00000000       0.00000000       0.00000000       0.65852618
Y        0.00000000       0.00000000       4.33131313       0.00000000       0.00000000      -0.65852618
2
Properties=species:S:1:pos:R:3:forces:R:3 energy=-32.97640962769881 pbc="F F F"
Y        0.00000000       0.00000000       0.00000000       0.00000000       0.00000000       0.61662209
Y        0.00000000       0.00000000       4.39090909       0.00000000       0.00000000      -0.61662209
2
Properties=species:S:1:pos:R:3:forces:R:3 energy=-32.94054348374848 pbc="F F F"
Y        0.00000000       0.00000000       0.00000000       0.00000000       0.00000000       0.58887893
Y        0.00000000       0.00000000       4.45050505       0.00000000       0.00000000      -0.58887893
2
Properties=species:S:1:pos:R:3:forces:R:3 energy=-32.906066654966175 pbc="F F F"
Y        0.00000000       0.00000000       0.00000000       0.00000000       0.00000000       0.56887937
Y        0.00000000       0.00000000       4.51010101       0.00000000       0.00000000      -0.56887937
2
Properties=species:S:1:pos:R:3:forces:R:3 energy=-32.872719288939265 pbc="F F F"
Y        0.00000000       0.00000000       0.00000000       0.00000000       0.00000000       0.54975259
Y        0.00000000       0.00000000       4.56969697       0.00000000       0.00000000      -0.54975259
2
Properties=species:S:1:pos:R:3:forces:R:3 energy=-32.840645916507846 pbc="F F F"
Y        0.00000000       0.00000000       0.00000000       0.00000000       0.00000000       0.52540827
Y        0.00000000       0.00000000       4.62929293       0.00000000       0.00000000      -0.52540827
2
Properties=species:S:1:pos:R:3:forces:R:3 energy=-32.81028099500769 pbc="F F F"
Y        0.00000000       0.00000000       0.00000000       0.00000000       0.00000000       0.49201953
Y        0.00000000       0.00000000       4.68888889       0.00000000       0.00000000      -0.49201953
2
Properties=species:S:1:pos:R:3:forces:R:3 energy=-32.78219251201795 pbc="F F F"
Y        0.00000000       0.00000000       0.00000000       0.00000000       0.00000000       0.44911960
Y        0.00000000       0.00000000       4.74848485       0.00000000       0.00000000      -0.44911960
2
Properties=species:S:1:pos:R:3:forces:R:3 energy=-32.75687600438015 pbc="F F F"
Y        0.00000000       0.00000000       0.00000000       0.00000000       0.00000000       0.39987525
Y        0.00000000       0.00000000       4.80808081       0.00000000       0.00000000      -0.39987525
2
Properties=species:S:1:pos:R:3:forces:R:3 energy=-32.734537110950555 pbc="F F F"
Y        0.00000000       0.00000000       0.00000000       0.00000000       0.00000000       0.35024357
Y        0.00000000       0.00000000       4.86767677       0.00000000       0.00000000      -0.35024357
2
Properties=species:S:1:pos:R:3:forces:R:3 energy=-32.71499243165295 pbc="F F F"
Y        0.00000000       0.00000000       0.00000000       0.00000000       0.00000000       0.30746996
Y        0.00000000       0.00000000       4.92727273       0.00000000       0.00000000      -0.30746996
2
Properties=species:S:1:pos:R:3:forces:R:3 energy=-32.69761605202485 pbc="F F F"
Y        0.00000000       0.00000000       0.00000000       0.00000000       0.00000000       0.27845451
Y        0.00000000       0.00000000       4.98686869       0.00000000       0.00000000      -0.27845451
2
Properties=species:S:1:pos:R:3:forces:R:3 energy=-32.6814273826249 pbc="F F F"
Y        0.00000000       0.00000000       0.00000000       0.00000000       0.00000000       0.26834249
Y        0.00000000       0.00000000       5.04646465       0.00000000       0.00000000      -0.26834249
2
Properties=species:S:1:pos:R:3:forces:R:3 energy=-32.66521316282113 pbc="F F F"
Y        0.00000000       0.00000000       0.00000000       0.00000000       0.00000000       0.27913380
Y        0.00000000       0.00000000       5.10606061       0.00000000       0.00000000      -0.27913380
2
Properties=species:S:1:pos:R:3:forces:R:3 energy=-32.64779070658049 pbc="F F F"
Y        0.00000000       0.00000000       0.00000000       0.00000000       0.00000000       0.30796072
Y        0.00000000       0.00000000       5.16565657       0.00000000       0.00000000      -0.30796072
2
Properties=species:S:1:pos:R:3:forces:R:3 energy=-32.62833599811191 pbc="F F F"
Y        0.00000000       0.00000000       0.00000000       0.00000000       0.00000000       0.34519294
Y        0.00000000       0.00000000       5.22525253       0.00000000       0.00000000      -0.34519294
2
Properties=species:S:1:pos:R:3:forces:R:3 energy=-32.606803213530874 pbc="F F F"
Y        0.00000000       0.00000000       0.00000000       0.00000000       0.00000000       0.37467220
Y        0.00000000       0.00000000       5.28484848       0.00000000       0.00000000      -0.37467220
2
Properties=species:S:1:pos:R:3:forces:R:3 energy=-32.58412702652737 pbc="F F F"
Y        0.00000000       0.00000000       0.00000000       0.00000000       0.00000000       0.38237157
Y        0.00000000       0.00000000       5.34444444       0.00000000       0.00000000      -0.38237157
2
Properties=species:S:1:pos:R:3:forces:R:3 energy=-32.561478731311716 pbc="F F F"
Y        0.00000000       0.00000000       0.00000000       0.00000000       0.00000000       0.37862572
Y        0.00000000       0.00000000       5.40404040       0.00000000       0.00000000      -0.37862572
2
Properties=species:S:1:pos:R:3:forces:R:3 energy=-32.538438915509225 pbc="F F F"
Y        0.00000000       0.00000000       0.00000000       0.00000000       0.00000000       0.40090507
Y        0.00000000       0.00000000       5.46363636       0.00000000       0.00000000      -0.40090507
2
Properties=species:S:1:pos:R:3:forces:R:3 energy=-32.513348478832896 pbc="F F F"
Y        0.00000000       0.00000000       0.00000000       0.00000000       0.00000000       0.43815136
Y        0.00000000       0.00000000       5.52323232       0.00000000       0.00000000      -0.43815136
2
Properties=species:S:1:pos:R:3:forces:R:3 energy=-32.487321710445975 pbc="F F F"
Y        0.00000000       0.00000000       0.00000000       0.00000000       0.00000000       0.42372805
Y        0.00000000       0.00000000       5.58282828       0.00000000       0.00000000      -0.42372805
2
Properties=species:S:1:pos:R:3:forces:R:3 energy=-32.46374651768672 pbc="F F F"
Y        0.00000000       0.00000000       0.00000000       0.00000000       0.00000000       0.36617485
Y        0.00000000       0.00000000       5.64242424       0.00000000       0.00000000      -0.36617485
2
Properties=species:S:1:pos:R:3:forces:R:3 energy=-32.443020183439636 pbc="F F F"
Y        0.00000000       0.00000000       0.00000000       0.00000000       0.00000000       0.33939630
Y        0.00000000       0.00000000       5.70202020       0.00000000       0.00000000      -0.33939630
2
Properties=species:S:1:pos:R:3:forces:R:3 energy=-32.422236551456216 pbc="F F F"
Y        0.00000000       0.00000000       0.00000000       0.00000000       0.00000000       0.36079371
Y        0.00000000       0.00000000       5.76161616       0.00000000       0.00000000      -0.36079371
2
Properties=species:S:1:pos:R:3:forces:R:3 energy=-32.401136922411084 pbc="F F F"
Y        0.00000000       0.00000000       0.00000000       0.00000000       0.00000000       0.32881850
Y        0.00000000       0.00000000       5.82121212       0.00000000       0.00000000      -0.32881850
2
Properties=species:S:1:pos:R:3:forces:R:3 energy=-32.38514277940988 pbc="F F F"
Y        0.00000000       0.00000000       0.00000000       0.00000000       0.00000000       0.19921899
Y        0.00000000       0.00000000       5.88080808       0.00000000       0.00000000      -0.19921899
2
Properties=species:S:1:pos:R:3:forces:R:3 energy=-32.37747839378622 pbc="F F F"
Y        0.00000000       0.00000000       0.00000000       0.00000000       0.00000000       0.06295165
Y        0.00000000       0.00000000       5.94040404       0.00000000       0.00000000      -0.06295165
2
Properties=species:S:1:pos:R:3:forces:R:3 energy=-32.375916910508856 pbc="F F F"
Y        0.00000000       0.00000000       0.00000000       0.00000000       0.00000000       0.00815023
Y        0.00000000       0.00000000       6.00000000       0.00000000       0.00000000      -0.00815023
