2
Properties=species:S:1:pos:R:3:forces:R:3 energy=1358790.4797201697 pbc="F F F"
Y        0.00000000       0.00000000       0.00000000       0.00000000       0.00000000 -238691.75000000
Y        0.00000000       0.00000000       0.18000000       0.00000000       0.00000000  238691.75000000
2
Properties=species:S:1:pos:R:3:forces:R:3 energy=1340756.4797201697 pbc="F F F"
Y        0.00000000       0.00000000       0.00000000       0.00000000       0.00000000 -415345.09375000
Y        0.00000000       0.00000000       0.23878788       0.00000000       0.00000000  415345.09375000
2
Properties=species:S:1:pos:R:3:forces:R:3 energy=1305311.3547201697 pbc="F F F"
Y        0.00000000       0.00000000       0.00000000       0.00000000       0.00000000 -830680.56250000
Y        0.00000000       0.00000000       0.29757576       0.00000000       0.00000000  830680.56250000
2
Properties=species:S:1:pos:R:3:forces:R:3 energy=1238333.1047201697 pbc="F F F"
Y        0.00000000       0.00000000       0.00000000       0.00000000       0.00000000 -1487504.12500000
Y        0.00000000       0.00000000       0.35636364       0.00000000       0.00000000 1487504.12500000
2
Properties=species:S:1:pos:R:3:forces:R:3 energy=1126449.9797201713 pbc="F F F"
Y        0.00000000       0.00000000       0.00000000       0.00000000       0.00000000 -2342534.25000000
Y        0.00000000       0.00000000       0.41515152       0.00000000       0.00000000 2342534.25000000
2
Properties=species:S:1:pos:R:3:forces:R:3 energy=961965.8547201712 pbc="F F F"
Y        0.00000000       0.00000000       0.00000000       0.00000000       0.00000000 -3240511.50000000
Y        0.00000000       0.00000000       0.47393939       0.00000000       0.00000000 3240511.50000000
2
Properties=species:S:1:pos:R:3:forces:R:3 energy=782322.4172201728 pbc="F F F"
Y        0.00000000       0.00000000       0.00000000       0.00000000       0.00000000 -3018372.75000000
Y        0.00000000       0.00000000       0.53272727       0.00000000       0.00000000 3018372.75000000
2
Properties=species:S:1:pos:R:3:forces:R:3 energy=590096.917220176 pbc="F F F"
Y        0.00000000       0.00000000       0.00000000       0.00000000       0.00000000 -3454930.50000000
Y        0.00000000       0.00000000       0.59151515       0.00000000       0.00000000 3454930.50000000
2
Properties=species:S:1:pos:R:3:forces:R:3 energy=386398.13597017917 pbc="F F F"
Y        0.00000000       0.00000000       0.00000000       0.00000000       0.00000000 -3371489.75000000
Y        0.00000000       0.00000000       0.65030303       0.00000000       0.00000000 3371489.75000000
2
Properties=species:S:1:pos:R:3:forces:R:3 energy=206221.94847018548 pbc="F F F"
Y        0.00000000       0.00000000       0.00000000       0.00000000       0.00000000 -2660864.50000000
Y        0.00000000       0.00000000       0.70909091       0.00000000       0.00000000 2660864.50000000
2
Properties=species:S:1:pos:R:3:forces:R:3 energy=81499.651595195 pbc="F F F"
Y        0.00000000       0.00000000       0.00000000       0.00000000       0.00000000 -1555846.00000000
Y        0.00000000       0.00000000       0.76787879       0.00000000       0.00000000 1555846.00000000
2
Properties=species:S:1:pos:R:3:forces:R:3 energy=21802.878157709245 pbc="F F F"
Y        0.00000000       0.00000000       0.00000000       0.00000000       0.00000000 -591322.75000000
Y        0.00000000       0.00000000       0.82666667       0.00000000       0.00000000  591322.75000000
2
Properties=species:S:1:pos:R:3:forces:R:3 energy=3297.7358237454628 pbc="F F F"
Y        0.00000000       0.00000000       0.00000000       0.00000000       0.00000000 -119401.11718750
Y        0.00000000       0.00000000       0.88545455       0.00000000       0.00000000  119401.11718750
2
Properties=species:S:1:pos:R:3:forces:R:3 energy=354.24311747356097 pbc="F F F"
Y        0.00000000       0.00000000       0.00000000       0.00000000       0.00000000  -15389.80761719
Y        0.00000000       0.00000000       0.94424242       0.00000000       0.00000000   15389.80761719
2
Properties=species:S:1:pos:R:3:forces:R:3 energy=87.83383101255139 pbc="F F F"
Y        0.00000000       0.00000000       0.00000000       0.00000000       0.00000000     872.44268799
Y        0.00000000       0.00000000       1.00303030       0.00000000       0.00000000    -872.44268799
2
Properties=species:S:1:pos:R:3:forces:R:3 energy=93.28047107946888 pbc="F F F"
Y        0.00000000       0.00000000       0.00000000       0.00000000       0.00000000      86.91629028
Y        0.00000000       0.00000000       1.06181818       0.00000000       0.00000000     -86.91629028
2
Properties=species:S:1:pos:R:3:forces:R:3 energy=91.86971980321971 pbc="F F F"
Y        0.00000000       0.00000000       0.00000000       0.00000000       0.00000000    -123.24800110
Y        0.00000000       0.00000000       1.12060606       0.00000000       0.00000000     123.24800110
2
Properties=species:S:1:pos:R:3:forces:R:3 energy=80.40756169037765 pbc="F F F"
Y        0.00000000       0.00000000       0.00000000       0.00000000       0.00000000    -260.24377441
Y        0.00000000       0.00000000       1.17939394       0.00000000       0.00000000     260.24377441
2
Properties=species:S:1:pos:R:3:forces:R:3 energy=61.96972610947596 pbc="F F F"
Y        0.00000000       0.00000000       0.00000000       0.00000000       0.00000000    -354.42590332
Y        0.00000000       0.00000000       1.23818182       0.00000000       0.00000000     354.42590332
2
Properties=species:S:1:pos:R:3:forces:R:3 energy=40.714446714180156 pbc="F F F"
Y        0.00000000       0.00000000       0.00000000       0.00000000       0.00000000    -354.02713013
Y        0.00000000       0.00000000       1.29696970       0.00000000       0.00000000     354.02713013
2
Properties=species:S:1:pos:R:3:forces:R:3 energy=21.223106260706807 pbc="F F F"
Y        0.00000000       0.00000000       0.00000000       0.00000000       0.00000000    -307.91744995
Y        0.00000000       0.00000000       1.35575758       0.00000000       0.00000000     307.91744995
2
Properties=species:S:1:pos:R:3:forces:R:3 energy=4.291557416524375 pbc="F F F"
Y        0.00000000       0.00000000       0.00000000       0.00000000       0.00000000    -271.60769653
Y        0.00000000       0.00000000       1.41454545       0.00000000       0.00000000     271.60769653
2
Properties=species:S:1:pos:R:3:forces:R:3 energy=-11.19936713674453 pbc="F F F"
Y        0.00000000       0.00000000       0.00000000       0.00000000       0.00000000    -255.13227844
Y        0.00000000       0.00000000       1.47333333       0.00000000       0.00000000     255.13227844
2
Properties=species:S:1:pos:R:3:forces:R:3 energy=-22.3673240941923 pbc="F F F"
Y        0.00000000       0.00000000       0.00000000       0.00000000       0.00000000     -88.45391846
Y        0.00000000       0.00000000       1.53212121       0.00000000       0.00000000      88.45391846
2
Properties=species:S:1:pos:R:3:forces:R:3 energy=-24.360590732198126 pbc="F F F"
Y        0.00000000       0.00000000       0.00000000       0.00000000       0.00000000     -14.04642105
Y        0.00000000       0.00000000       1.59090909       0.00000000       0.00000000      14.04642105
2
Properties=species:S:1:pos:R:3:forces:R:3 energy=-25.23505044251567 pbc="F F F"
Y        0.00000000       0.00000000       0.00000000       0.00000000       0.00000000     -16.19957352
Y        0.00000000       0.00000000       1.64969697       0.00000000       0.00000000      16.19957352
2
Properties=species:S:1:pos:R:3:forces:R:3 energy=-26.307868587229514 pbc="F F F"
Y        0.00000000       0.00000000       0.00000000       0.00000000       0.00000000     -20.82970428
Y        0.00000000       0.00000000       1.70848485       0.00000000       0.00000000      20.82970428
2
Properties=species:S:1:pos:R:3:forces:R:3 energy=-27.68308147850947 pbc="F F F"
Y        0.00000000       0.00000000       0.00000000       0.00000000       0.00000000     -25.33759308
Y        0.00000000       0.00000000       1.76727273       0.00000000       0.00000000      25.33759308
2
Properties=species:S:1:pos:R:3:forces:R:3 energy=-29.186695036185384 pbc="F F F"
Y        0.00000000       0.00000000       0.00000000       0.00000000       0.00000000     -25.00640678
Y        0.00000000       0.00000000       1.82606061       0.00000000       0.00000000      25.00640678
2
Properties=species:S:1:pos:R:3:forces:R:3 energy=-30.55486570328945 pbc="F F F"
Y        0.00000000       0.00000000       0.00000000       0.00000000       0.00000000     -21.18398285
Y        0.00000000       0.00000000       1.88484848       0.00000000       0.00000000      21.18398285
2
Properties=species:S:1:pos:R:3:forces:R:3 energy=-31.655650714959123 pbc="F F F"
Y        0.00000000       0.00000000       0.00000000       0.00000000       0.00000000     -16.21525574
Y        0.00000000       0.00000000       1.94363636       0.00000000       0.00000000      16.21525574
2
Properties=species:S:1:pos:R:3:forces:R:3 energy=-32.466690194661545 pbc="F F F"
Y        0.00000000       0.00000000       0.00000000       0.00000000       0.00000000     -11.49632263
Y        0.00000000       0.00000000       2.00242424       0.00000000       0.00000000      11.49632263
2
Properties=species:S:1:pos:R:3:forces:R:3 energy=-33.02680819847503 pbc="F F F"
Y        0.00000000       0.00000000       0.00000000       0.00000000       0.00000000      -7.75315142
Y        0.00000000       0.00000000       2.06121212       0.00000000       0.00000000       7.75315142
2
Properties=species:S:1:pos:R:3:forces:R:3 energy=-33.40178724647017 pbc="F F F"
Y        0.00000000       0.00000000       0.00000000       0.00000000       0.00000000      -5.19864798
Y        0.00000000       0.00000000       2.12000000       0.00000000       0.00000000       5.19864798
2
Properties=species:S:1:pos:R:3:forces:R:3 energy=-33.65886901368378 pbc="F F F"
Y        0.00000000       0.00000000       0.00000000       0.00000000       0.00000000      -3.70113373
Y        0.00000000       0.00000000       2.17878788       0.00000000       0.00000000       3.70113373
2
Properties=species:S:1:pos:R:3:forces:R:3 energy=-33.85153557161902 pbc="F F F"
Y        0.00000000       0.00000000       0.00000000       0.00000000       0.00000000      -2.94550776
Y        0.00000000       0.00000000       2.23757576       0.00000000       0.00000000       2.94550776
2
Properties=species:S:1:pos:R:3:forces:R:3 energy=-34.01230342352675 pbc="F F F"
Y        0.00000000       0.00000000       0.00000000       0.00000000       0.00000000      -2.55637455
Y        0.00000000       0.00000000       2.29636364       0.00000000       0.00000000       2.55637455
2
Properties=species:S:1:pos:R:3:forces:R:3 energy=-34.153547542371335 pbc="F F F"
Y        0.00000000       0.00000000       0.00000000       0.00000000       0.00000000      -2.24677896
Y        0.00000000       0.00000000       2.35515152       0.00000000       0.00000000       2.24677896
2
Properties=species:S:1:pos:R:3:forces:R:3 energy=-34.275409258853095 pbc="F F F"
Y        0.00000000       0.00000000       0.00000000       0.00000000       0.00000000      -1.88654733
Y        0.00000000       0.00000000       2.41393939       0.00000000       0.00000000       1.88654733
2
Properties=species:S:1:pos:R:3:forces:R:3 energy=-34.37384532490789 pbc="F F F"
Y        0.00000000       0.00000000       0.00000000       0.00000000       0.00000000      -1.45026934
Y        0.00000000       0.00000000       2.47272727       0.00000000       0.00000000       1.45026934
2
Properties=species:S:1:pos:R:3:forces:R:3 energy=-34.44480133189985 pbc="F F F"
Y        0.00000000       0.00000000       0.00000000       0.00000000       0.00000000      -0.95756346
Y        0.00000000       0.00000000       2.53151515       0.00000000       0.00000000       0.95756346
2
Properties=species:S:1:pos:R:3:forces:R:3 energy=-34.48632507508132 pbc="F F F"
Y        0.00000000       0.00000000       0.00000000       0.00000000       0.00000000      -0.46062434
Y        0.00000000       0.00000000       2.59030303       0.00000000       0.00000000       0.46062434
2
Properties=species:S:1:pos:R:3:forces:R:3 energy=-34.500416905098106 pbc="F F F"
Y        0.00000000       0.00000000       0.00000000       0.00000000       0.00000000      -0.03778752
Y        0.00000000       0.00000000       2.64909091       0.00000000       0.00000000       0.03778752
2
Properties=species:S:1:pos:R:3:forces:R:3 energy=-34.493560259181265 pbc="F F F"
Y        0.00000000       0.00000000       0.00000000       0.00000000       0.00000000       0.24489261
Y        0.00000000       0.00000000       2.70787879       0.00000000       0.00000000      -0.24489261
2
Properties=species:S:1:pos:R:3:forces:R:3 energy=-34.47454370342722 pbc="F F F"
Y        0.00000000       0.00000000       0.00000000       0.00000000       0.00000000       0.38104209
Y        0.00000000       0.00000000       2.76666667       0.00000000       0.00000000      -0.38104209
2
Properties=species:S:1:pos:R:3:forces:R:3 energy=-34.45050934992572 pbc="F F F"
Y        0.00000000       0.00000000       0.00000000       0.00000000       0.00000000       0.42839479
Y        0.00000000       0.00000000       2.82545455       0.00000000       0.00000000      -0.42839479
2
Properties=species:S:1:pos:R:3:forces:R:3 energy=-34.42441676574383 pbc="F F F"
Y        0.00000000       0.00000000       0.00000000       0.00000000       0.00000000       0.46195665
Y        0.00000000       0.00000000       2.88424242       0.00000000       0.00000000      -0.46195665
2
Properties=species:S:1:pos:R:3:forces:R:3 energy=-34.39560817218224 pbc="F F F"
Y        0.00000000       0.00000000       0.00000000       0.00000000       0.00000000       0.52374542
Y        0.00000000       0.00000000       2.94303030       0.00000000       0.00000000      -0.52374542
2
Properties=species:S:1:pos:R:3:forces:R:3 energy=-34.362335022487024 pbc="F F F"
Y        0.00000000       0.00000000       0.00000000       0.00000000       0.00000000       0.61030430
Y        0.00000000       0.00000000       3.00181818       0.00000000       0.00000000      -0.61030430
2
Properties=species:S:1:pos:R:3:forces:R:3 energy=-34.3239297287684 pbc="F F F"
Y        0.00000000       0.00000000       0.00000000       0.00000000       0.00000000       0.69296461
Y        0.00000000       0.00000000       3.06060606       0.00000000       0.00000000      -0.69296461
2
Properties=species:S:1:pos:R:3:forces:R:3 energy=-34.281486643747684 pbc="F F F"
Y        0.00000000       0.00000000       0.00000000       0.00000000       0.00000000       0.74429452
Y        0.00000000       0.00000000       3.11939394       0.00000000       0.00000000      -0.74429452
2
Properties=species:S:1:pos:R:3:forces:R:3 energy=-34.23724573023559 pbc="F F F"
Y        0.00000000       0.00000000       0.00000000       0.00000000       0.00000000       0.75426364
Y        0.00000000       0.00000000       3.17818182       0.00000000       0.00000000      -0.75426364
2
Properties=species:S:1:pos:R:3:forces:R:3 energy=-34.193411023434706 pbc="F F F"
Y        0.00000000       0.00000000       0.00000000       0.00000000       0.00000000       0.73372984
Y        0.00000000       0.00000000       3.23696970       0.00000000       0.00000000      -0.73372984
2
Properties=species:S:1:pos:R:3:forces:R:3 energy=-34.15107193231641 pbc="F F F"
Y        0.00000000       0.00000000       0.00000000       0.00000000       0.00000000       0.70849860
Y        0.00000000       0.00000000       3.29575758       0.00000000       0.00000000      -0.70849860
2
Properties=species:S:1:pos:R:3:forces:R:3 energy=-34.10961788223351 pbc="F F F"
Y        0.00000000       0.00000000       0.00000000       0.00000000       0.00000000       0.70818424
Y        0.00000000       0.00000000       3.35454545       0.00000000       0.00000000      -0.70818424
2
Properties=species:S:1:pos:R:3:forces:R:3 energy=-34.06687390366696 pbc="F F F"
Y        0.00000000       0.00000000       0.00000000       0.00000000       0.00000000       0.75492811
Y        0.00000000       0.00000000       3.41333333       0.00000000       0.00000000      -0.75492811
2
Properties=species:S:1:pos:R:3:forces:R:3 energy=-34.019771618607784 pbc="F F F"
Y        0.00000000       0.00000000       0.00000000       0.00000000       0.00000000       0.85637081
Y        0.00000000       0.00000000       3.47212121       0.00000000       0.00000000      -0.85637081
2
Properties=species:S:1:pos:R:3:forces:R:3 energy=-33.96527156229825 pbc="F F F"
Y        0.00000000       0.00000000       0.00000000       0.00000000       0.00000000       1.00387287
Y        0.00000000       0.00000000       3.53090909       0.00000000       0.00000000      -1.00387287
2
Properties=species:S:1:pos:R:3:forces:R:3 energy=-33.90127950433268 pbc="F F F"
Y        0.00000000       0.00000000       0.00000000       0.00000000       0.00000000       1.17466366
Y        0.00000000       0.00000000       3.58969697       0.00000000       0.00000000      -1.17466366
2
Properties=species:S:1:pos:R:3:forces:R:3 energy=-33.82730964790643 pbc="F F F"
Y        0.00000000       0.00000000       0.00000000       0.00000000       0.00000000       1.33795249
Y        0.00000000       0.00000000       3.64848485       0.00000000       0.00000000      -1.33795249
2
Properties=species:S:1:pos:R:3:forces:R:3 energy=-33.74470035365159 pbc="F F F"
Y        0.00000000       0.00000000       0.00000000       0.00000000       0.00000000       1.46428144
Y        0.00000000       0.00000000       3.70727273       0.00000000       0.00000000      -1.46428144
2
Properties=species:S:1:pos:R:3:forces:R:3 energy=-33.65627027021611 pbc="F F F"
Y        0.00000000       0.00000000       0.00000000       0.00000000       0.00000000       1.53355122
Y        0.00000000       0.00000000       3.76606061       0.00000000       0.00000000      -1.53355122
2
Properties=species:S:1:pos:R:3:forces:R:3 energy=-33.56566073408215 pbc="F F F"
Y        0.00000000       0.00000000       0.00000000       0.00000000       0.00000000       1.53841782
Y        0.00000000       0.00000000       3.82484848       0.00000000       0.00000000      -1.53841782
2
Properties=species:S:1:pos:R:3:forces:R:3 energy=-33.47656655154776 pbc="F F F"
Y        0.00000000       0.00000000       0.00000000       0.00000000       0.00000000       1.48361433
Y        0.00000000       0.00000000       3.88363636       0.00000000       0.00000000      -1.48361433
2
Properties=species:S:1:pos:R:3:forces:R:3 energy=-33.39212896387422 pbc="F F F"
Y        0.00000000       0.00000000       0.00000000       0.00000000       0.00000000       1.38266373
Y        0.00000000       0.00000000       3.94242424       0.00000000       0.00000000      -1.38266373
2
Properties=species:S:1:pos:R:3:forces:R:3 energy=-33.31455107306453 pbc="F F F"
Y        0.00000000       0.00000000       0.00000000       0.00000000       0.00000000       1.25351930
Y        0.00000000       0.00000000       4.00121212       0.00000000       0.00000000      -1.25351930
2
Properties=species:S:1:pos:R:3:forces:R:3 energy=-33.24494202340449 pbc="F F F"
Y        0.00000000       0.00000000       0.00000000       0.00000000       0.00000000       1.11441004
Y        0.00000000       0.00000000       4.06000000       0.00000000       0.00000000      -1.11441004
2
Properties=species:S:1:pos:R:3:forces:R:3 energy=-33.18341470927546 pbc="F F F"
Y        0.00000000       0.00000000       0.00000000       0.00000000       0.00000000       0.98067182
Y        0.00000000       0.00000000       4.11878788       0.00000000       0.00000000      -0.98067182
2
Properties=species:S:1:pos:R:3:forces:R:3 energy=-33.12932126253888 pbc="F F F"
Y        0.00000000       0.00000000       0.00000000       0.00000000       0.00000000       0.86289382
Y        0.00000000       0.00000000       4.17757576       0.00000000       0.00000000      -0.86289382
2
Properties=species:S:1:pos:R:3:forces:R:3 energy=-33.08153630948754 pbc="F F F"
Y        0.00000000       0.00000000       0.00000000       0.00000000       0.00000000       0.76660901
Y        0.00000000       0.00000000       4.23636364       0.00000000       0.00000000      -0.76660901
2
Properties=species:S:1:pos:R:3:forces:R:3 energy=-33.03873586823409 pbc="F F F"
Y        0.00000000       0.00000000       0.00000000       0.00000000       0.00000000       0.69310153
Y        0.00000000       0.00000000       4.29515152       0.00000000       0.00000000      -0.69310153
2
Properties=species:S:1:pos:R:3:forces:R:3 energy=-32.99963019413191 pbc="F F F"
Y        0.00000000       0.00000000       0.00000000       0.00000000       0.00000000       0.64058876
Y        0.00000000       0.00000000       4.35393939       0.00000000       0.00000000      -0.64058876
2
Properties=species:S:1:pos:R:3:forces:R:3 energy=-32.963085929283174 pbc="F F F"
Y        0.00000000       0.00000000       0.00000000       0.00000000       0.00000000       0.60514098
Y        0.00000000       0.00000000       4.41272727       0.00000000       0.00000000      -0.60514098
2
Properties=species:S:1:pos:R:3:forces:R:3 energy=-32.928251962206 pbc="F F F"
Y        0.00000000       0.00000000       0.00000000       0.00000000       0.00000000       0.58129883
Y        0.00000000       0.00000000       4.47151515       0.00000000       0.00000000      -0.58129883
2
Properties=species:S:1:pos:R:3:forces:R:3 energy=-32.894635781968425 pbc="F F F"
Y        0.00000000       0.00000000       0.00000000       0.00000000       0.00000000       0.56263399
Y        0.00000000       0.00000000       4.53030303       0.00000000       0.00000000      -0.56263399
2
Properties=species:S:1:pos:R:3:forces:R:3 energy=-32.86212632519029 pbc="F F F"
Y        0.00000000       0.00000000       0.00000000       0.00000000       0.00000000       0.54264706
Y        0.00000000       0.00000000       4.58909091       0.00000000       0.00000000      -0.54264706
2
Properties=species:S:1:pos:R:3:forces:R:3 energy=-32.83096733651883 pbc="F F F"
Y        0.00000000       0.00000000       0.00000000       0.00000000       0.00000000       0.51606280
Y        0.00000000       0.00000000       4.64787879       0.00000000       0.00000000      -0.51606280
2
Properties=species:S:1:pos:R:3:forces:R:3 energy=-32.80163525713448 pbc="F F F"
Y        0.00000000       0.00000000       0.00000000       0.00000000       0.00000000       0.48014069
Y        0.00000000       0.00000000       4.70666667       0.00000000       0.00000000      -0.48014069
2
Properties=species:S:1:pos:R:3:forces:R:3 energy=-32.77468664319589 pbc="F F F"
Y        0.00000000       0.00000000       0.00000000       0.00000000       0.00000000       0.43552476
Y        0.00000000       0.00000000       4.76545455       0.00000000       0.00000000      -0.43552476
2
Properties=species:S:1:pos:R:3:forces:R:3 energy=-32.75052169579117 pbc="F F F"
Y        0.00000000       0.00000000       0.00000000       0.00000000       0.00000000       0.38615698
Y        0.00000000       0.00000000       4.82424242       0.00000000       0.00000000      -0.38615698
2
Properties=species:S:1:pos:R:3:forces:R:3 energy=-32.72925452638477 pbc="F F F"
Y        0.00000000       0.00000000       0.00000000       0.00000000       0.00000000       0.33827740
Y        0.00000000       0.00000000       4.88303030       0.00000000       0.00000000      -0.33827740
2
Properties=species:S:1:pos:R:3:forces:R:3 energy=-32.71058348878873 pbc="F F F"
Y        0.00000000       0.00000000       0.00000000       0.00000000       0.00000000       0.29888210
Y        0.00000000       0.00000000       4.94181818       0.00000000       0.00000000      -0.29888210
2
Properties=species:S:1:pos:R:3:forces:R:3 energy=-32.693821665062515 pbc="F F F"
Y        0.00000000       0.00000000       0.00000000       0.00000000       0.00000000       0.27431217
Y        0.00000000       0.00000000       5.00060606       0.00000000       0.00000000      -0.27431217
2
Properties=species:S:1:pos:R:3:forces:R:3 energy=-32.67795413665722 pbc="F F F"
Y        0.00000000       0.00000000       0.00000000       0.00000000       0.00000000       0.26892048
Y        0.00000000       0.00000000       5.05939394       0.00000000       0.00000000      -0.26892048
2
Properties=species:S:1:pos:R:3:forces:R:3 energy=-32.66180202273358 pbc="F F F"
Y        0.00000000       0.00000000       0.00000000       0.00000000       0.00000000       0.28374183
Y        0.00000000       0.00000000       5.11818182       0.00000000       0.00000000      -0.28374183
2
Properties=species:S:1:pos:R:3:forces:R:3 energy=-32.6442703657922 pbc="F F F"
Y        0.00000000       0.00000000       0.00000000       0.00000000       0.00000000       0.31479570
Y        0.00000000       0.00000000       5.17696970       0.00000000       0.00000000      -0.31479570
2
Properties=species:S:1:pos:R:3:forces:R:3 energy=-32.62467632551907 pbc="F F F"
Y        0.00000000       0.00000000       0.00000000       0.00000000       0.00000000       0.35146478
Y        0.00000000       0.00000000       5.23575758       0.00000000       0.00000000      -0.35146478
2
Properties=species:S:1:pos:R:3:forces:R:3 energy=-32.603157183498396 pbc="F F F"
Y        0.00000000       0.00000000       0.00000000       0.00000000       0.00000000       0.37757623
Y        0.00000000       0.00000000       5.29454545       0.00000000       0.00000000      -0.37757623
2
Properties=species:S:1:pos:R:3:forces:R:3 energy=-32.58073155259914 pbc="F F F"
Y        0.00000000       0.00000000       0.00000000       0.00000000       0.00000000       0.38175976
Y        0.00000000       0.00000000       5.35333333       0.00000000       0.00000000      -0.38175976
2
Properties=species:S:1:pos:R:3:forces:R:3 energy=-32.558421958589996 pbc="F F F"
Y        0.00000000       0.00000000       0.00000000       0.00000000       0.00000000       0.37937823
Y        0.00000000       0.00000000       5.41212121       0.00000000       0.00000000      -0.37937823
2
Properties=species:S:1:pos:R:3:forces:R:3 energy=-32.53551526215854 pbc="F F F"
Y        0.00000000       0.00000000       0.00000000       0.00000000       0.00000000       0.40588725
Y        0.00000000       0.00000000       5.47090909       0.00000000       0.00000000      -0.40588725
2
Properties=species:S:1:pos:R:3:forces:R:3 energy=-32.510501128291594 pbc="F F F"
Y        0.00000000       0.00000000       0.00000000       0.00000000       0.00000000       0.43994254
Y        0.00000000       0.00000000       5.52969697       0.00000000       0.00000000      -0.43994254
2
Properties=species:S:1:pos:R:3:forces:R:3 energy=-32.48493634628347 pbc="F F F"
Y        0.00000000       0.00000000       0.00000000       0.00000000       0.00000000       0.41912520
Y        0.00000000       0.00000000       5.58848485       0.00000000       0.00000000      -0.41912520
2
Properties=species:S:1:pos:R:3:forces:R:3 energy=-32.46199137939265 pbc="F F F"
Y        0.00000000       0.00000000       0.00000000       0.00000000       0.00000000       0.36182168
Y        0.00000000       0.00000000       5.64727273       0.00000000       0.00000000      -0.36182168
2
Properties=species:S:1:pos:R:3:forces:R:3 energy=-32.44167057767834 pbc="F F F"
Y        0.00000000       0.00000000       0.00000000       0.00000000       0.00000000       0.33981574
Y        0.00000000       0.00000000       5.70606061       0.00000000       0.00000000      -0.33981574
2
Properties=species:S:1:pos:R:3:forces:R:3 energy=-32.42102198318227 pbc="F F F"
Y        0.00000000       0.00000000       0.00000000       0.00000000       0.00000000       0.36186576
Y        0.00000000       0.00000000       5.76484848       0.00000000       0.00000000      -0.36186576
2
Properties=species:S:1:pos:R:3:forces:R:3 energy=-32.400313315298256 pbc="F F F"
Y        0.00000000       0.00000000       0.00000000       0.00000000       0.00000000       0.32532707
Y        0.00000000       0.00000000       5.82363636       0.00000000       0.00000000      -0.32532707
2
Properties=species:S:1:pos:R:3:forces:R:3 energy=-32.38478290889759 pbc="F F F"
Y        0.00000000       0.00000000       0.00000000       0.00000000       0.00000000       0.19506788
Y        0.00000000       0.00000000       5.88242424       0.00000000       0.00000000      -0.19506788
2
Properties=species:S:1:pos:R:3:forces:R:3 energy=-32.37744139167616 pbc="F F F"
Y        0.00000000       0.00000000       0.00000000       0.00000000       0.00000000       0.06147258
Y        0.00000000       0.00000000       5.94121212       0.00000000       0.00000000      -0.06147258
2
Properties=species:S:1:pos:R:3:forces:R:3 energy=-32.375916910508856 pbc="F F F"
Y        0.00000000       0.00000000       0.00000000       0.00000000       0.00000000       0.00815023
Y        0.00000000       0.00000000       6.00000000       0.00000000       0.00000000      -0.00815023
