2
Properties=species:S:1:pos:R:3:forces:R:3 energy=14355.810747340498 pbc="F F F"
Yb       0.00000000       0.00000000       0.00000000       0.00000000       0.00000000 -239087.18750000
Yb       0.00000000       0.00000000       0.18000000       0.00000000       0.00000000  239087.18750000
2
Properties=species:S:1:pos:R:3:forces:R:3 energy=5982.526567652998 pbc="F F F"
Yb       0.00000000       0.00000000       0.00000000       0.00000000       0.00000000  -79497.85937500
Yb       0.00000000       0.00000000       0.23878788       0.00000000       0.00000000   79497.85937500
2
Properties=species:S:1:pos:R:3:forces:R:3 energy=2979.057085231123 pbc="F F F"
Yb       0.00000000       0.00000000       0.00000000       0.00000000       0.00000000  -31198.00585938
Yb       0.00000000       0.00000000       0.29757576       0.00000000       0.00000000   31198.00585938
2
Properties=species:S:1:pos:R:3:forces:R:3 energy=1739.5823537858105 pbc="F F F"
Yb       0.00000000       0.00000000       0.00000000       0.00000000       0.00000000  -13698.63085938
Yb       0.00000000       0.00000000       0.35636364       0.00000000       0.00000000   13698.63085938
2
Properties=species:S:1:pos:R:3:forces:R:3 energy=1169.9893362076855 pbc="F F F"
Yb       0.00000000       0.00000000       0.00000000       0.00000000       0.00000000   -6698.27587891
Yb       0.00000000       0.00000000       0.41515152       0.00000000       0.00000000    6698.27587891
2
Properties=species:S:1:pos:R:3:forces:R:3 energy=874.0026418717481 pbc="F F F"
Yb       0.00000000       0.00000000       0.00000000       0.00000000       0.00000000   -3795.04028320
Yb       0.00000000       0.00000000       0.47393939       0.00000000       0.00000000    3795.04028320
2
Properties=species:S:1:pos:R:3:forces:R:3 energy=686.1718923631971 pbc="F F F"
Yb       0.00000000       0.00000000       0.00000000       0.00000000       0.00000000   -3016.08691406
Yb       0.00000000       0.00000000       0.53272727       0.00000000       0.00000000    3016.08691406
2
Properties=species:S:1:pos:R:3:forces:R:3 energy=507.3833181444471 pbc="F F F"
Yb       0.00000000       0.00000000       0.00000000       0.00000000       0.00000000   -3519.35229492
Yb       0.00000000       0.00000000       0.59151515       0.00000000       0.00000000    3519.35229492
2
Properties=species:S:1:pos:R:3:forces:R:3 energy=311.504961217189 pbc="F F F"
Yb       0.00000000       0.00000000       0.00000000       0.00000000       0.00000000   -3106.78515625
Yb       0.00000000       0.00000000       0.65030303       0.00000000       0.00000000    3106.78515625
2
Properties=species:S:1:pos:R:3:forces:R:3 energy=148.51558134071217 pbc="F F F"
Yb       0.00000000       0.00000000       0.00000000       0.00000000       0.00000000   -2378.22192383
Yb       0.00000000       0.00000000       0.70909091       0.00000000       0.00000000    2378.22192383
2
Properties=species:S:1:pos:R:3:forces:R:3 energy=35.13618682213347 pbc="F F F"
Yb       0.00000000       0.00000000       0.00000000       0.00000000       0.00000000   -1700.51879883
Yb       0.00000000       0.00000000       0.76787879       0.00000000       0.00000000    1700.51879883
2
Properties=species:S:1:pos:R:3:forces:R:3 energy=-28.894628289706965 pbc="F F F"
Yb       0.00000000       0.00000000       0.00000000       0.00000000       0.00000000    -567.32794189
Yb       0.00000000       0.00000000       0.82666667       0.00000000       0.00000000     567.32794189
2
Properties=species:S:1:pos:R:3:forces:R:3 energy=-44.62818692231737 pbc="F F F"
Yb       0.00000000       0.00000000       0.00000000       0.00000000       0.00000000     -44.03158569
Yb       0.00000000       0.00000000       0.88545455       0.00000000       0.00000000      44.03158569
2
Properties=species:S:1:pos:R:3:forces:R:3 energy=-45.131776520766095 pbc="F F F"
Yb       0.00000000       0.00000000       0.00000000       0.00000000       0.00000000      18.38800430
Yb       0.00000000       0.00000000       0.94424242       0.00000000       0.00000000     -18.38800430
2
Properties=species:S:1:pos:R:3:forces:R:3 energy=-42.273984578949644 pbc="F F F"
Yb       0.00000000       0.00000000       0.00000000       0.00000000       0.00000000    -109.53533936
Yb       0.00000000       0.00000000       1.00303030       0.00000000       0.00000000     109.53533936
2
Properties=species:S:1:pos:R:3:forces:R:3 energy=-46.65448150385643 pbc="F F F"
Yb       0.00000000       0.00000000       0.00000000       0.00000000       0.00000000     -54.15534210
Yb       0.00000000       0.00000000       1.06181818       0.00000000       0.00000000      54.15534210
2
Properties=species:S:1:pos:R:3:forces:R:3 energy=-49.00375892733442 pbc="F F F"
Yb       0.00000000       0.00000000       0.00000000       0.00000000       0.00000000     -30.02674484
Yb       0.00000000       0.00000000       1.12060606       0.00000000       0.00000000      30.02674484
2
Properties=species:S:1:pos:R:3:forces:R:3 energy=-50.60871260133671 pbc="F F F"
Yb       0.00000000       0.00000000       0.00000000       0.00000000       0.00000000     -26.38846397
Yb       0.00000000       0.00000000       1.17939394       0.00000000       0.00000000      26.38846397
2
Properties=species:S:1:pos:R:3:forces:R:3 energy=-52.21012620459829 pbc="F F F"
Yb       0.00000000       0.00000000       0.00000000       0.00000000       0.00000000     -28.47855759
Yb       0.00000000       0.00000000       1.23818182       0.00000000       0.00000000      28.47855759
2
Properties=species:S:1:pos:R:3:forces:R:3 energy=-53.94859803740611 pbc="F F F"
Yb       0.00000000       0.00000000       0.00000000       0.00000000       0.00000000     -29.95790863
Yb       0.00000000       0.00000000       1.29696970       0.00000000       0.00000000      29.95790863
2
Properties=species:S:1:pos:R:3:forces:R:3 energy=-55.56552975628434 pbc="F F F"
Yb       0.00000000       0.00000000       0.00000000       0.00000000       0.00000000     -23.26346970
Yb       0.00000000       0.00000000       1.35575758       0.00000000       0.00000000      23.26346970
2
Properties=species:S:1:pos:R:3:forces:R:3 energy=-56.54760425307868 pbc="F F F"
Yb       0.00000000       0.00000000       0.00000000       0.00000000       0.00000000     -10.17467785
Yb       0.00000000       0.00000000       1.41454545       0.00000000       0.00000000      10.17467785
2
Properties=species:S:1:pos:R:3:forces:R:3 energy=-56.90414844359666 pbc="F F F"
Yb       0.00000000       0.00000000       0.00000000       0.00000000       0.00000000      -3.79607439
Yb       0.00000000       0.00000000       1.47333333       0.00000000       0.00000000       3.79607439
2
Properties=species:S:1:pos:R:3:forces:R:3 energy=-57.17096326167617 pbc="F F F"
Yb       0.00000000       0.00000000       0.00000000       0.00000000       0.00000000      -6.11901140
Yb       0.00000000       0.00000000       1.53212121       0.00000000       0.00000000       6.11901140
2
Properties=species:S:1:pos:R:3:forces:R:3 energy=-57.65094709529269 pbc="F F F"
Yb       0.00000000       0.00000000       0.00000000       0.00000000       0.00000000     -10.04765034
Yb       0.00000000       0.00000000       1.59090909       0.00000000       0.00000000      10.04765034
2
Properties=species:S:1:pos:R:3:forces:R:3 energy=-58.318156182007066 pbc="F F F"
Yb       0.00000000       0.00000000       0.00000000       0.00000000       0.00000000     -12.34258556
Yb       0.00000000       0.00000000       1.64969697       0.00000000       0.00000000      12.34258556
2
Properties=species:S:1:pos:R:3:forces:R:3 energy=-59.07294297450406 pbc="F F F"
Yb       0.00000000       0.00000000       0.00000000       0.00000000       0.00000000     -13.16147518
Yb       0.00000000       0.00000000       1.70848485       0.00000000       0.00000000      13.16147518
2
Properties=species:S:1:pos:R:3:forces:R:3 energy=-59.852956233305754 pbc="F F F"
Yb       0.00000000       0.00000000       0.00000000       0.00000000       0.00000000     -13.31875324
Yb       0.00000000       0.00000000       1.76727273       0.00000000       0.00000000      13.31875324
2
Properties=species:S:1:pos:R:3:forces:R:3 energy=-60.63540693794035 pbc="F F F"
Yb       0.00000000       0.00000000       0.00000000       0.00000000       0.00000000     -13.28068352
Yb       0.00000000       0.00000000       1.82606061       0.00000000       0.00000000      13.28068352
2
Properties=species:S:1:pos:R:3:forces:R:3 energy=-61.41073162652384 pbc="F F F"
Yb       0.00000000       0.00000000       0.00000000       0.00000000       0.00000000     -13.04567432
Yb       0.00000000       0.00000000       1.88484848       0.00000000       0.00000000      13.04567432
2
Properties=species:S:1:pos:R:3:forces:R:3 energy=-62.161203366016814 pbc="F F F"
Yb       0.00000000       0.00000000       0.00000000       0.00000000       0.00000000     -12.40778065
Yb       0.00000000       0.00000000       1.94363636       0.00000000       0.00000000      12.40778065
2
Properties=species:S:1:pos:R:3:forces:R:3 energy=-62.86125985103537 pbc="F F F"
Yb       0.00000000       0.00000000       0.00000000       0.00000000       0.00000000     -11.35417080
Yb       0.00000000       0.00000000       2.00242424       0.00000000       0.00000000      11.35417080
2
Properties=species:S:1:pos:R:3:forces:R:3 energy=-63.49228151254779 pbc="F F F"
Yb       0.00000000       0.00000000       0.00000000       0.00000000       0.00000000     -10.10002232
Yb       0.00000000       0.00000000       2.06121212       0.00000000       0.00000000      10.10002232
2
Properties=species:S:1:pos:R:3:forces:R:3 energy=-64.04860730496584 pbc="F F F"
Yb       0.00000000       0.00000000       0.00000000       0.00000000       0.00000000      -8.83181477
Yb       0.00000000       0.00000000       2.12000000       0.00000000       0.00000000       8.83181477
2
Properties=species:S:1:pos:R:3:forces:R:3 energy=-64.5314922351795 pbc="F F F"
Yb       0.00000000       0.00000000       0.00000000       0.00000000       0.00000000      -7.60280943
Yb       0.00000000       0.00000000       2.17878788       0.00000000       0.00000000       7.60280943
2
Properties=species:S:1:pos:R:3:forces:R:3 energy=-64.9432174478041 pbc="F F F"
Yb       0.00000000       0.00000000       0.00000000       0.00000000       0.00000000      -6.41084051
Yb       0.00000000       0.00000000       2.23757576       0.00000000       0.00000000       6.41084051
2
Properties=species:S:1:pos:R:3:forces:R:3 energy=-65.28636163384172 pbc="F F F"
Yb       0.00000000       0.00000000       0.00000000       0.00000000       0.00000000      -5.27682352
Yb       0.00000000       0.00000000       2.29636364       0.00000000       0.00000000       5.27682352
2
Properties=species:S:1:pos:R:3:forces:R:3 energy=-65.56600592253282 pbc="F F F"
Yb       0.00000000       0.00000000       0.00000000       0.00000000       0.00000000      -4.26362324
Yb       0.00000000       0.00000000       2.35515152       0.00000000       0.00000000       4.26362324
2
Properties=species:S:1:pos:R:3:forces:R:3 energy=-65.79153442163351 pbc="F F F"
Yb       0.00000000       0.00000000       0.00000000       0.00000000       0.00000000      -3.44684863
Yb       0.00000000       0.00000000       2.41393939       0.00000000       0.00000000       3.44684863
2
Properties=species:S:1:pos:R:3:forces:R:3 energy=-65.97595518863095 pbc="F F F"
Yb       0.00000000       0.00000000       0.00000000       0.00000000       0.00000000      -2.86699891
Yb       0.00000000       0.00000000       2.47272727       0.00000000       0.00000000       2.86699891
2
Properties=species:S:1:pos:R:3:forces:R:3 energy=-66.13291715648856 pbc="F F F"
Yb       0.00000000       0.00000000       0.00000000       0.00000000       0.00000000      -2.50476599
Yb       0.00000000       0.00000000       2.53151515       0.00000000       0.00000000       2.50476599
2
Properties=species:S:1:pos:R:3:forces:R:3 energy=-66.27345236000646 pbc="F F F"
Yb       0.00000000       0.00000000       0.00000000       0.00000000       0.00000000      -2.29533839
Yb       0.00000000       0.00000000       2.59030303       0.00000000       0.00000000       2.29533839
2
Properties=species:S:1:pos:R:3:forces:R:3 energy=-66.40426697362115 pbc="F F F"
Yb       0.00000000       0.00000000       0.00000000       0.00000000       0.00000000      -2.16184425
Yb       0.00000000       0.00000000       2.64909091       0.00000000       0.00000000       2.16184425
2
Properties=species:S:1:pos:R:3:forces:R:3 energy=-66.52792437886049 pbc="F F F"
Yb       0.00000000       0.00000000       0.00000000       0.00000000       0.00000000      -2.04429936
Yb       0.00000000       0.00000000       2.70787879       0.00000000       0.00000000       2.04429936
2
Properties=species:S:1:pos:R:3:forces:R:3 energy=-66.6443482152549 pbc="F F F"
Yb       0.00000000       0.00000000       0.00000000       0.00000000       0.00000000      -1.91327429
Yb       0.00000000       0.00000000       2.76666667       0.00000000       0.00000000       1.91327429
2
Properties=species:S:1:pos:R:3:forces:R:3 energy=-66.75258471662112 pbc="F F F"
Yb       0.00000000       0.00000000       0.00000000       0.00000000       0.00000000      -1.76754141
Yb       0.00000000       0.00000000       2.82545455       0.00000000       0.00000000       1.76754141
2
Properties=species:S:1:pos:R:3:forces:R:3 energy=-66.85215313923683 pbc="F F F"
Yb       0.00000000       0.00000000       0.00000000       0.00000000       0.00000000      -1.62112522
Yb       0.00000000       0.00000000       2.88424242       0.00000000       0.00000000       1.62112522
2
Properties=species:S:1:pos:R:3:forces:R:3 energy=-66.9434653658686 pbc="F F F"
Yb       0.00000000       0.00000000       0.00000000       0.00000000       0.00000000      -1.48861063
Yb       0.00000000       0.00000000       2.94303030       0.00000000       0.00000000       1.48861063
2
Properties=species:S:1:pos:R:3:forces:R:3 energy=-67.02757415159145 pbc="F F F"
Yb       0.00000000       0.00000000       0.00000000       0.00000000       0.00000000      -1.37592399
Yb       0.00000000       0.00000000       3.00181818       0.00000000       0.00000000       1.37592399
2
Properties=species:S:1:pos:R:3:forces:R:3 energy=-67.1055474912625 pbc="F F F"
Yb       0.00000000       0.00000000       0.00000000       0.00000000       0.00000000      -1.27874315
Yb       0.00000000       0.00000000       3.06060606       0.00000000       0.00000000       1.27874315
2
Properties=species:S:1:pos:R:3:forces:R:3 energy=-67.17801849791493 pbc="F F F"
Yb       0.00000000       0.00000000       0.00000000       0.00000000       0.00000000      -1.18640244
Yb       0.00000000       0.00000000       3.11939394       0.00000000       0.00000000       1.18640244
2
Properties=species:S:1:pos:R:3:forces:R:3 energy=-67.24491077940098 pbc="F F F"
Yb       0.00000000       0.00000000       0.00000000       0.00000000       0.00000000      -1.08757806
Yb       0.00000000       0.00000000       3.17818182       0.00000000       0.00000000       1.08757806
2
Properties=species:S:1:pos:R:3:forces:R:3 energy=-67.30561379092099 pbc="F F F"
Yb       0.00000000       0.00000000       0.00000000       0.00000000       0.00000000      -0.97469127
Yb       0.00000000       0.00000000       3.23696970       0.00000000       0.00000000       0.97469127
2
Properties=species:S:1:pos:R:3:forces:R:3 energy=-67.35918901874513 pbc="F F F"
Yb       0.00000000       0.00000000       0.00000000       0.00000000       0.00000000      -0.84557015
Yb       0.00000000       0.00000000       3.29575758       0.00000000       0.00000000       0.84557015
2
Properties=species:S:1:pos:R:3:forces:R:3 energy=-67.40475887342602 pbc="F F F"
Yb       0.00000000       0.00000000       0.00000000       0.00000000       0.00000000      -0.70266610
Yb       0.00000000       0.00000000       3.35454545       0.00000000       0.00000000       0.70266610
2
Properties=species:S:1:pos:R:3:forces:R:3 energy=-67.44163652889002 pbc="F F F"
Yb       0.00000000       0.00000000       0.00000000       0.00000000       0.00000000      -0.55103934
Yb       0.00000000       0.00000000       3.41333333       0.00000000       0.00000000       0.55103934
2
Properties=species:S:1:pos:R:3:forces:R:3 energy=-67.46948609537276 pbc="F F F"
Yb       0.00000000       0.00000000       0.00000000       0.00000000       0.00000000      -0.39652452
Yb       0.00000000       0.00000000       3.47212121       0.00000000       0.00000000       0.39652452
2
Properties=species:S:1:pos:R:3:forces:R:3 energy=-67.48831498685686 pbc="F F F"
Yb       0.00000000       0.00000000       0.00000000       0.00000000       0.00000000      -0.24489440
Yb       0.00000000       0.00000000       3.53090909       0.00000000       0.00000000       0.24489440
2
Properties=species:S:1:pos:R:3:forces:R:3 energy=-67.498451039224 pbc="F F F"
Yb       0.00000000       0.00000000       0.00000000       0.00000000       0.00000000      -0.10197081
Yb       0.00000000       0.00000000       3.58969697       0.00000000       0.00000000       0.10197081
2
Properties=species:S:1:pos:R:3:forces:R:3 energy=-67.50059594769475 pbc="F F F"
Yb       0.00000000       0.00000000       0.00000000       0.00000000       0.00000000       0.02606906
Yb       0.00000000       0.00000000       3.64848485       0.00000000       0.00000000      -0.02606906
2
Properties=species:S:1:pos:R:3:forces:R:3 energy=-67.49580234696691 pbc="F F F"
Yb       0.00000000       0.00000000       0.00000000       0.00000000       0.00000000       0.13313435
Yb       0.00000000       0.00000000       3.70727273       0.00000000       0.00000000      -0.13313435
2
Properties=species:S:1:pos:R:3:forces:R:3 energy=-67.48544330947637 pbc="F F F"
Yb       0.00000000       0.00000000       0.00000000       0.00000000       0.00000000       0.21463290
Yb       0.00000000       0.00000000       3.76606061       0.00000000       0.00000000      -0.21463290
2
Properties=species:S:1:pos:R:3:forces:R:3 energy=-67.47109787280095 pbc="F F F"
Yb       0.00000000       0.00000000       0.00000000       0.00000000       0.00000000       0.26917255
Yb       0.00000000       0.00000000       3.82484848       0.00000000       0.00000000      -0.26917255
2
Properties=species:S:1:pos:R:3:forces:R:3 energy=-67.45427644164594 pbc="F F F"
Yb       0.00000000       0.00000000       0.00000000       0.00000000       0.00000000       0.29939759
Yb       0.00000000       0.00000000       3.88363636       0.00000000       0.00000000      -0.29939759
2
Properties=species:S:1:pos:R:3:forces:R:3 energy=-67.43625283029061 pbc="F F F"
Yb       0.00000000       0.00000000       0.00000000       0.00000000       0.00000000       0.31122759
Yb       0.00000000       0.00000000       3.94242424       0.00000000       0.00000000      -0.31122759
2
Properties=species:S:1:pos:R:3:forces:R:3 energy=-67.417904153009 pbc="F F F"
Yb       0.00000000       0.00000000       0.00000000       0.00000000       0.00000000       0.31191954
Yb       0.00000000       0.00000000       4.00121212       0.00000000       0.00000000      -0.31191954
2
Properties=species:S:1:pos:R:3:forces:R:3 energy=-67.39967262957991 pbc="F F F"
Yb       0.00000000       0.00000000       0.00000000       0.00000000       0.00000000       0.30801532
Yb       0.00000000       0.00000000       4.06000000       0.00000000       0.00000000      -0.30801532
2
Properties=species:S:1:pos:R:3:forces:R:3 energy=-67.38168765876726 pbc="F F F"
Yb       0.00000000       0.00000000       0.00000000       0.00000000       0.00000000       0.30410144
Yb       0.00000000       0.00000000       4.11878788       0.00000000       0.00000000      -0.30410144
2
Properties=species:S:1:pos:R:3:forces:R:3 energy=-67.3638650131203 pbc="F F F"
Yb       0.00000000       0.00000000       0.00000000       0.00000000       0.00000000       0.30256021
Yb       0.00000000       0.00000000       4.17757576       0.00000000       0.00000000      -0.30256021
2
Properties=species:S:1:pos:R:3:forces:R:3 energy=-67.34605179113402 pbc="F F F"
Yb       0.00000000       0.00000000       0.00000000       0.00000000       0.00000000       0.30397815
Yb       0.00000000       0.00000000       4.23636364       0.00000000       0.00000000      -0.30397815
2
Properties=species:S:1:pos:R:3:forces:R:3 energy=-67.32807981984303 pbc="F F F"
Yb       0.00000000       0.00000000       0.00000000       0.00000000       0.00000000       0.30773902
Yb       0.00000000       0.00000000       4.29515152       0.00000000       0.00000000      -0.30773902
2
Properties=species:S:1:pos:R:3:forces:R:3 energy=-67.3098495987523 pbc="F F F"
Yb       0.00000000       0.00000000       0.00000000       0.00000000       0.00000000       0.31254998
Yb       0.00000000       0.00000000       4.35393939       0.00000000       0.00000000      -0.31254998
2
Properties=species:S:1:pos:R:3:forces:R:3 energy=-67.29134552694798 pbc="F F F"
Yb       0.00000000       0.00000000       0.00000000       0.00000000       0.00000000       0.31678197
Yb       0.00000000       0.00000000       4.41272727       0.00000000       0.00000000      -0.31678197
2
Properties=species:S:1:pos:R:3:forces:R:3 energy=-67.27265119514858 pbc="F F F"
Yb       0.00000000       0.00000000       0.00000000       0.00000000       0.00000000       0.31870392
Yb       0.00000000       0.00000000       4.47151515       0.00000000       0.00000000      -0.31870392
2
Properties=species:S:1:pos:R:3:forces:R:3 energy=-67.25394937303373 pbc="F F F"
Yb       0.00000000       0.00000000       0.00000000       0.00000000       0.00000000       0.31669024
Yb       0.00000000       0.00000000       4.53030303       0.00000000       0.00000000      -0.31669024
2
Properties=species:S:1:pos:R:3:forces:R:3 energy=-67.23551437193001 pbc="F F F"
Yb       0.00000000       0.00000000       0.00000000       0.00000000       0.00000000       0.30946824
Yb       0.00000000       0.00000000       4.58909091       0.00000000       0.00000000      -0.30946824
2
Properties=species:S:1:pos:R:3:forces:R:3 energy=-67.21767392634875 pbc="F F F"
Yb       0.00000000       0.00000000       0.00000000       0.00000000       0.00000000       0.29643041
Yb       0.00000000       0.00000000       4.64787879       0.00000000       0.00000000      -0.29643041
2
Properties=species:S:1:pos:R:3:forces:R:3 energy=-67.20077102483863 pbc="F F F"
Yb       0.00000000       0.00000000       0.00000000       0.00000000       0.00000000       0.27787340
Yb       0.00000000       0.00000000       4.70666667       0.00000000       0.00000000      -0.27787340
2
Properties=species:S:1:pos:R:3:forces:R:3 energy=-67.1850876239599 pbc="F F F"
Yb       0.00000000       0.00000000       0.00000000       0.00000000       0.00000000       0.25509959
Yb       0.00000000       0.00000000       4.76545455       0.00000000       0.00000000      -0.25509959
2
Properties=species:S:1:pos:R:3:forces:R:3 energy=-67.17082177277206 pbc="F F F"
Yb       0.00000000       0.00000000       0.00000000       0.00000000       0.00000000       0.23019856
Yb       0.00000000       0.00000000       4.82424242       0.00000000       0.00000000      -0.23019856
2
Properties=species:S:1:pos:R:3:forces:R:3 energy=-67.15801894194746 pbc="F F F"
Yb       0.00000000       0.00000000       0.00000000       0.00000000       0.00000000       0.20559146
Yb       0.00000000       0.00000000       4.88303030       0.00000000       0.00000000      -0.20559146
2
Properties=species:S:1:pos:R:3:forces:R:3 energy=-67.14660254610116 pbc="F F F"
Yb       0.00000000       0.00000000       0.00000000       0.00000000       0.00000000       0.18341058
Yb       0.00000000       0.00000000       4.94181818       0.00000000       0.00000000      -0.18341058
2
Properties=species:S:1:pos:R:3:forces:R:3 energy=-67.13638157476933 pbc="F F F"
Yb       0.00000000       0.00000000       0.00000000       0.00000000       0.00000000       0.16501412
Yb       0.00000000       0.00000000       5.00060606       0.00000000       0.00000000      -0.16501412
2
Properties=species:S:1:pos:R:3:forces:R:3 energy=-67.12711927279922 pbc="F F F"
Yb       0.00000000       0.00000000       0.00000000       0.00000000       0.00000000       0.15070905
Yb       0.00000000       0.00000000       5.05939394       0.00000000       0.00000000      -0.15070905
2
Properties=species:S:1:pos:R:3:forces:R:3 energy=-67.11859415333058 pbc="F F F"
Yb       0.00000000       0.00000000       0.00000000       0.00000000       0.00000000       0.13984641
Yb       0.00000000       0.00000000       5.11818182       0.00000000       0.00000000      -0.13984641
2
Properties=species:S:1:pos:R:3:forces:R:3 energy=-67.11063054705203 pbc="F F F"
Yb       0.00000000       0.00000000       0.00000000       0.00000000       0.00000000       0.13108340
Yb       0.00000000       0.00000000       5.17696970       0.00000000       0.00000000      -0.13108340
2
Properties=species:S:1:pos:R:3:forces:R:3 energy=-67.10317488347509 pbc="F F F"
Yb       0.00000000       0.00000000       0.00000000       0.00000000       0.00000000       0.12255330
Yb       0.00000000       0.00000000       5.23575758       0.00000000       0.00000000      -0.12255330
2
Properties=species:S:1:pos:R:3:forces:R:3 energy=-67.09626517494 pbc="F F F"
Yb       0.00000000       0.00000000       0.00000000       0.00000000       0.00000000       0.11196344
Yb       0.00000000       0.00000000       5.29454545       0.00000000       0.00000000      -0.11196344
2
Properties=species:S:1:pos:R:3:forces:R:3 energy=-67.09006918734697 pbc="F F F"
Yb       0.00000000       0.00000000       0.00000000       0.00000000       0.00000000       0.09836279
Yb       0.00000000       0.00000000       5.35333333       0.00000000       0.00000000      -0.09836279
2
Properties=species:S:1:pos:R:3:forces:R:3 energy=-67.08465553772945 pbc="F F F"
Yb       0.00000000       0.00000000       0.00000000       0.00000000       0.00000000       0.08721682
Yb       0.00000000       0.00000000       5.41212121       0.00000000       0.00000000      -0.08721682
2
Properties=species:S:1:pos:R:3:forces:R:3 energy=-67.07955883302103 pbc="F F F"
Yb       0.00000000       0.00000000       0.00000000       0.00000000       0.00000000       0.08886701
Yb       0.00000000       0.00000000       5.47090909       0.00000000       0.00000000      -0.08886701
2
Properties=species:S:1:pos:R:3:forces:R:3 energy=-67.0740314416589 pbc="F F F"
Yb       0.00000000       0.00000000       0.00000000       0.00000000       0.00000000       0.09866100
Yb       0.00000000       0.00000000       5.52969697       0.00000000       0.00000000      -0.09866100
2
Properties=species:S:1:pos:R:3:forces:R:3 energy=-67.06818791385089 pbc="F F F"
Yb       0.00000000       0.00000000       0.00000000       0.00000000       0.00000000       0.09754816
Yb       0.00000000       0.00000000       5.58848485       0.00000000       0.00000000      -0.09754816
2
Properties=species:S:1:pos:R:3:forces:R:3 energy=-67.06277609181998 pbc="F F F"
Yb       0.00000000       0.00000000       0.00000000       0.00000000       0.00000000       0.08683866
Yb       0.00000000       0.00000000       5.64727273       0.00000000       0.00000000      -0.08683866
2
Properties=species:S:1:pos:R:3:forces:R:3 energy=-67.05767411432996 pbc="F F F"
Yb       0.00000000       0.00000000       0.00000000       0.00000000       0.00000000       0.09106313
Yb       0.00000000       0.00000000       5.70606061       0.00000000       0.00000000      -0.09106313
2
Properties=species:S:1:pos:R:3:forces:R:3 energy=-67.05153948987947 pbc="F F F"
Yb       0.00000000       0.00000000       0.00000000       0.00000000       0.00000000       0.11920673
Yb       0.00000000       0.00000000       5.76484848       0.00000000       0.00000000      -0.11920673
2
Properties=species:S:1:pos:R:3:forces:R:3 energy=-67.04400634648799 pbc="F F F"
Yb       0.00000000       0.00000000       0.00000000       0.00000000       0.00000000       0.12972808
Yb       0.00000000       0.00000000       5.82363636       0.00000000       0.00000000      -0.12972808
2
Properties=species:S:1:pos:R:3:forces:R:3 energy=-67.0373867771728 pbc="F F F"
Yb       0.00000000       0.00000000       0.00000000       0.00000000       0.00000000       0.08871759
Yb       0.00000000       0.00000000       5.88242424       0.00000000       0.00000000      -0.08871759
2
Properties=species:S:1:pos:R:3:forces:R:3 energy=-67.03390903080688 pbc="F F F"
Yb       0.00000000       0.00000000       0.00000000       0.00000000       0.00000000       0.03102427
Yb       0.00000000       0.00000000       5.94121212       0.00000000       0.00000000      -0.03102427
2
Properties=species:S:1:pos:R:3:forces:R:3 energy=-67.03305481224581 pbc="F F F"
Yb       0.00000000       0.00000000       0.00000000       0.00000000       0.00000000       0.00629483
Yb       0.00000000       0.00000000       6.00000000       0.00000000       0.00000000      -0.00629483
