2
Properties=species:S:1:pos:R:3:forces:R:3 energy=3946.2057552225842 pbc="F F F"
Zn       0.00000000       0.00000000       0.00000000       0.00000000       0.00000000  -65823.37500000
Zn       0.00000000       0.00000000       0.18000000       0.00000000       0.00000000   65823.37500000
2
Properties=species:S:1:pos:R:3:forces:R:3 energy=1563.4657649882092 pbc="F F F"
Zn       0.00000000       0.00000000       0.00000000       0.00000000       0.00000000  -23651.87500000
Zn       0.00000000       0.00000000       0.23878788       0.00000000       0.00000000   23651.87500000
2
Properties=species:S:1:pos:R:3:forces:R:3 energy=644.1393489725842 pbc="F F F"
Zn       0.00000000       0.00000000       0.00000000       0.00000000       0.00000000   -9877.99804688
Zn       0.00000000       0.00000000       0.29757576       0.00000000       0.00000000    9877.99804688
2
Properties=species:S:1:pos:R:3:forces:R:3 energy=246.02077292357149 pbc="F F F"
Zn       0.00000000       0.00000000       0.00000000       0.00000000       0.00000000   -4282.92578125
Zn       0.00000000       0.00000000       0.35636364       0.00000000       0.00000000    4282.92578125
2
Properties=species:S:1:pos:R:3:forces:R:3 energy=174.39626120561346 pbc="F F F"
Zn       0.00000000       0.00000000       0.00000000       0.00000000       0.00000000    -354.96136475
Zn       0.00000000       0.00000000       0.41515152       0.00000000       0.00000000     354.96136475
2
Properties=species:S:1:pos:R:3:forces:R:3 energy=244.07356833610362 pbc="F F F"
Zn       0.00000000       0.00000000       0.00000000       0.00000000       0.00000000    -463.43524170
Zn       0.00000000       0.00000000       0.47393939       0.00000000       0.00000000     463.43524170
2
Properties=species:S:1:pos:R:3:forces:R:3 energy=127.97928428007033 pbc="F F F"
Zn       0.00000000       0.00000000       0.00000000       0.00000000       0.00000000   -3695.77416992
Zn       0.00000000       0.00000000       0.53272727       0.00000000       0.00000000    3695.77416992
2
Properties=species:S:1:pos:R:3:forces:R:3 energy=10.953338622953828 pbc="F F F"
Zn       0.00000000       0.00000000       0.00000000       0.00000000       0.00000000     814.09637451
Zn       0.00000000       0.00000000       0.59151515       0.00000000       0.00000000    -814.09637451
2
Properties=species:S:1:pos:R:3:forces:R:3 energy=24.871141441542328 pbc="F F F"
Zn       0.00000000       0.00000000       0.00000000       0.00000000       0.00000000    -411.65591431
Zn       0.00000000       0.00000000       0.65030303       0.00000000       0.00000000     411.65591431
2
Properties=species:S:1:pos:R:3:forces:R:3 energy=12.757831592400214 pbc="F F F"
Zn       0.00000000       0.00000000       0.00000000       0.00000000       0.00000000      -8.12472153
Zn       0.00000000       0.00000000       0.70909091       0.00000000       0.00000000       8.12472153
2
Properties=species:S:1:pos:R:3:forces:R:3 energy=17.108915366900312 pbc="F F F"
Zn       0.00000000       0.00000000       0.00000000       0.00000000       0.00000000     161.39880371
Zn       0.00000000       0.00000000       0.76787879       0.00000000       0.00000000    -161.39880371
2
Properties=species:S:1:pos:R:3:forces:R:3 energy=29.687860554530864 pbc="F F F"
Zn       0.00000000       0.00000000       0.00000000       0.00000000       0.00000000     223.70919800
Zn       0.00000000       0.00000000       0.82666667       0.00000000       0.00000000    -223.70919800
2
Properties=species:S:1:pos:R:3:forces:R:3 energy=39.97467623743919 pbc="F F F"
Zn       0.00000000       0.00000000       0.00000000       0.00000000       0.00000000     119.21356964
Zn       0.00000000       0.00000000       0.88545455       0.00000000       0.00000000    -119.21356964
2
Properties=species:S:1:pos:R:3:forces:R:3 energy=43.86583916439857 pbc="F F F"
Zn       0.00000000       0.00000000       0.00000000       0.00000000       0.00000000      15.74162006
Zn       0.00000000       0.00000000       0.94424242       0.00000000       0.00000000     -15.74162006
2
Properties=species:S:1:pos:R:3:forces:R:3 energy=41.885313268383406 pbc="F F F"
Zn       0.00000000       0.00000000       0.00000000       0.00000000       0.00000000     -82.81942749
Zn       0.00000000       0.00000000       1.00303030       0.00000000       0.00000000      82.81942749
2
Properties=species:S:1:pos:R:3:forces:R:3 energy=34.64294657898223 pbc="F F F"
Zn       0.00000000       0.00000000       0.00000000       0.00000000       0.00000000    -156.18692017
Zn       0.00000000       0.00000000       1.06181818       0.00000000       0.00000000     156.18692017
2
Properties=species:S:1:pos:R:3:forces:R:3 energy=24.634291164727017 pbc="F F F"
Zn       0.00000000       0.00000000       0.00000000       0.00000000       0.00000000    -174.40197754
Zn       0.00000000       0.00000000       1.12060606       0.00000000       0.00000000     174.40197754
2
Properties=species:S:1:pos:R:3:forces:R:3 energy=15.133293796414229 pbc="F F F"
Zn       0.00000000       0.00000000       0.00000000       0.00000000       0.00000000    -141.06564331
Zn       0.00000000       0.00000000       1.17939394       0.00000000       0.00000000     141.06564331
2
Properties=species:S:1:pos:R:3:forces:R:3 energy=8.72177401705714 pbc="F F F"
Zn       0.00000000       0.00000000       0.00000000       0.00000000       0.00000000     -79.15280914
Zn       0.00000000       0.00000000       1.23818182       0.00000000       0.00000000      79.15280914
2
Properties=species:S:1:pos:R:3:forces:R:3 energy=4.891610347264613 pbc="F F F"
Zn       0.00000000       0.00000000       0.00000000       0.00000000       0.00000000     -57.34499359
Zn       0.00000000       0.00000000       1.29696970       0.00000000       0.00000000      57.34499359
2
Properties=species:S:1:pos:R:3:forces:R:3 energy=1.7185588719140257 pbc="F F F"
Zn       0.00000000       0.00000000       0.00000000       0.00000000       0.00000000     -50.92116165
Zn       0.00000000       0.00000000       1.35575758       0.00000000       0.00000000      50.92116165
2
Properties=species:S:1:pos:R:3:forces:R:3 energy=-1.0981988340779831 pbc="F F F"
Zn       0.00000000       0.00000000       0.00000000       0.00000000       0.00000000     -44.86227798
Zn       0.00000000       0.00000000       1.41454545       0.00000000       0.00000000      44.86227798
2
Properties=species:S:1:pos:R:3:forces:R:3 energy=-3.5516027094516365 pbc="F F F"
Zn       0.00000000       0.00000000       0.00000000       0.00000000       0.00000000     -38.58935165
Zn       0.00000000       0.00000000       1.47333333       0.00000000       0.00000000      38.58935165
2
Properties=species:S:1:pos:R:3:forces:R:3 energy=-5.637984906946925 pbc="F F F"
Zn       0.00000000       0.00000000       0.00000000       0.00000000       0.00000000     -32.44625092
Zn       0.00000000       0.00000000       1.53212121       0.00000000       0.00000000      32.44625092
2
Properties=species:S:1:pos:R:3:forces:R:3 energy=-7.375784708384186 pbc="F F F"
Zn       0.00000000       0.00000000       0.00000000       0.00000000       0.00000000     -26.77080917
Zn       0.00000000       0.00000000       1.59090909       0.00000000       0.00000000      26.77080917
2
Properties=species:S:1:pos:R:3:forces:R:3 energy=-8.797798988551786 pbc="F F F"
Zn       0.00000000       0.00000000       0.00000000       0.00000000       0.00000000     -21.71416664
Zn       0.00000000       0.00000000       1.64969697       0.00000000       0.00000000      21.71416664
2
Properties=species:S:1:pos:R:3:forces:R:3 energy=-9.941257327387234 pbc="F F F"
Zn       0.00000000       0.00000000       0.00000000       0.00000000       0.00000000     -17.29079247
Zn       0.00000000       0.00000000       1.70848485       0.00000000       0.00000000      17.29079247
2
Properties=species:S:1:pos:R:3:forces:R:3 energy=-10.843147178465674 pbc="F F F"
Zn       0.00000000       0.00000000       0.00000000       0.00000000       0.00000000     -13.50088215
Zn       0.00000000       0.00000000       1.76727273       0.00000000       0.00000000      13.50088215
2
Properties=species:S:1:pos:R:3:forces:R:3 energy=-11.54209933460052 pbc="F F F"
Zn       0.00000000       0.00000000       0.00000000       0.00000000       0.00000000     -10.39758205
Zn       0.00000000       0.00000000       1.82606061       0.00000000       0.00000000      10.39758205
2
Properties=species:S:1:pos:R:3:forces:R:3 energy=-12.079942588041602 pbc="F F F"
Zn       0.00000000       0.00000000       0.00000000       0.00000000       0.00000000      -8.02050304
Zn       0.00000000       0.00000000       1.88484848       0.00000000       0.00000000       8.02050304
2
Properties=species:S:1:pos:R:3:forces:R:3 energy=-12.498524413139194 pbc="F F F"
Zn       0.00000000       0.00000000       0.00000000       0.00000000       0.00000000      -6.32455397
Zn       0.00000000       0.00000000       1.94363636       0.00000000       0.00000000       6.32455397
2
Properties=species:S:1:pos:R:3:forces:R:3 energy=-12.83436219357759 pbc="F F F"
Zn       0.00000000       0.00000000       0.00000000       0.00000000       0.00000000      -5.17840099
Zn       0.00000000       0.00000000       2.00242424       0.00000000       0.00000000       5.17840099
2
Properties=species:S:1:pos:R:3:forces:R:3 energy=-13.1146803490506 pbc="F F F"
Zn       0.00000000       0.00000000       0.00000000       0.00000000       0.00000000      -4.40524006
Zn       0.00000000       0.00000000       2.06121212       0.00000000       0.00000000       4.40524006
2
Properties=species:S:1:pos:R:3:forces:R:3 energy=-13.35628110234769 pbc="F F F"
Zn       0.00000000       0.00000000       0.00000000       0.00000000       0.00000000      -3.83656645
Zn       0.00000000       0.00000000       2.12000000       0.00000000       0.00000000       3.83656645
2
Properties=species:S:1:pos:R:3:forces:R:3 energy=-13.567508450991621 pbc="F F F"
Zn       0.00000000       0.00000000       0.00000000       0.00000000       0.00000000      -3.35921907
Zn       0.00000000       0.00000000       2.17878788       0.00000000       0.00000000       3.35921907
2
Properties=species:S:1:pos:R:3:forces:R:3 energy=-13.752168687979385 pbc="F F F"
Zn       0.00000000       0.00000000       0.00000000       0.00000000       0.00000000      -2.93072629
Zn       0.00000000       0.00000000       2.23757576       0.00000000       0.00000000       2.93072629
2
Properties=species:S:1:pos:R:3:forces:R:3 energy=-13.913127424029453 pbc="F F F"
Zn       0.00000000       0.00000000       0.00000000       0.00000000       0.00000000      -2.55526757
Zn       0.00000000       0.00000000       2.29636364       0.00000000       0.00000000       2.55526757
2
Properties=species:S:1:pos:R:3:forces:R:3 energy=-14.053852821423536 pbc="F F F"
Zn       0.00000000       0.00000000       0.00000000       0.00000000       0.00000000      -2.24266601
Zn       0.00000000       0.00000000       2.35515152       0.00000000       0.00000000       2.24266601
2
Properties=species:S:1:pos:R:3:forces:R:3 energy=-14.1778408370966 pbc="F F F"
Zn       0.00000000       0.00000000       0.00000000       0.00000000       0.00000000      -1.98198938
Zn       0.00000000       0.00000000       2.41393939       0.00000000       0.00000000       1.98198938
2
Properties=species:S:1:pos:R:3:forces:R:3 energy=-14.28732412423313 pbc="F F F"
Zn       0.00000000       0.00000000       0.00000000       0.00000000       0.00000000      -1.74370718
Zn       0.00000000       0.00000000       2.47272727       0.00000000       0.00000000       1.74370718
2
Properties=species:S:1:pos:R:3:forces:R:3 energy=-14.382725033820526 pbc="F F F"
Zn       0.00000000       0.00000000       0.00000000       0.00000000       0.00000000      -1.49919105
Zn       0.00000000       0.00000000       2.53151515       0.00000000       0.00000000       1.49919105
2
Properties=species:S:1:pos:R:3:forces:R:3 energy=-14.463238171972868 pbc="F F F"
Zn       0.00000000       0.00000000       0.00000000       0.00000000       0.00000000      -1.23732436
Zn       0.00000000       0.00000000       2.59030303       0.00000000       0.00000000       1.23732436
2
Properties=species:S:1:pos:R:3:forces:R:3 energy=-14.528063949570292 pbc="F F F"
Zn       0.00000000       0.00000000       0.00000000       0.00000000       0.00000000      -0.96886981
Zn       0.00000000       0.00000000       2.64909091       0.00000000       0.00000000       0.96886981
2
Properties=species:S:1:pos:R:3:forces:R:3 energy=-14.57752444477531 pbc="F F F"
Zn       0.00000000       0.00000000       0.00000000       0.00000000       0.00000000      -0.71922886
Zn       0.00000000       0.00000000       2.70787879       0.00000000       0.00000000       0.71922886
2
Properties=species:S:1:pos:R:3:forces:R:3 energy=-14.613468165231696 pbc="F F F"
Zn       0.00000000       0.00000000       0.00000000       0.00000000       0.00000000      -0.51193875
Zn       0.00000000       0.00000000       2.76666667       0.00000000       0.00000000       0.51193875
2
Properties=species:S:1:pos:R:3:forces:R:3 energy=-14.63874489060409 pbc="F F F"
Zn       0.00000000       0.00000000       0.00000000       0.00000000       0.00000000      -0.35667846
Zn       0.00000000       0.00000000       2.82545455       0.00000000       0.00000000       0.35667846
2
Properties=species:S:1:pos:R:3:forces:R:3 energy=-14.656358555618967 pbc="F F F"
Zn       0.00000000       0.00000000       0.00000000       0.00000000       0.00000000      -0.24989071
Zn       0.00000000       0.00000000       2.88424242       0.00000000       0.00000000       0.24989071
2
Properties=species:S:1:pos:R:3:forces:R:3 energy=-14.668878500898826 pbc="F F F"
Zn       0.00000000       0.00000000       0.00000000       0.00000000       0.00000000      -0.18150158
Zn       0.00000000       0.00000000       2.94303030       0.00000000       0.00000000       0.18150158
2
Properties=species:S:1:pos:R:3:forces:R:3 energy=-14.678247316022688 pbc="F F F"
Zn       0.00000000       0.00000000       0.00000000       0.00000000       0.00000000      -0.14117876
Zn       0.00000000       0.00000000       3.00181818       0.00000000       0.00000000       0.14117876
2
Properties=species:S:1:pos:R:3:forces:R:3 energy=-14.685872344873818 pbc="F F F"
Zn       0.00000000       0.00000000       0.00000000       0.00000000       0.00000000      -0.12108674
Zn       0.00000000       0.00000000       3.06060606       0.00000000       0.00000000       0.12108674
2
Properties=species:S:1:pos:R:3:forces:R:3 energy=-14.692767111839693 pbc="F F F"
Zn       0.00000000       0.00000000       0.00000000       0.00000000       0.00000000      -0.11547285
Zn       0.00000000       0.00000000       3.11939394       0.00000000       0.00000000       0.11547285
2
Properties=species:S:1:pos:R:3:forces:R:3 energy=-14.699635398471507 pbc="F F F"
Zn       0.00000000       0.00000000       0.00000000       0.00000000       0.00000000      -0.11934690
Zn       0.00000000       0.00000000       3.17818182       0.00000000       0.00000000       0.11934690
2
Properties=species:S:1:pos:R:3:forces:R:3 energy=-14.706890865003743 pbc="F F F"
Zn       0.00000000       0.00000000       0.00000000       0.00000000       0.00000000      -0.12790798
Zn       0.00000000       0.00000000       3.23696970       0.00000000       0.00000000       0.12790798
2
Properties=species:S:1:pos:R:3:forces:R:3 energy=-14.71468103159625 pbc="F F F"
Zn       0.00000000       0.00000000       0.00000000       0.00000000       0.00000000      -0.13686901
Zn       0.00000000       0.00000000       3.29575758       0.00000000       0.00000000       0.13686901
2
Properties=species:S:1:pos:R:3:forces:R:3 energy=-14.722929279601948 pbc="F F F"
Zn       0.00000000       0.00000000       0.00000000       0.00000000       0.00000000      -0.14307243
Zn       0.00000000       0.00000000       3.35454545       0.00000000       0.00000000       0.14307243
2
Properties=species:S:1:pos:R:3:forces:R:3 energy=-14.731415932890645 pbc="F F F"
Zn       0.00000000       0.00000000       0.00000000       0.00000000       0.00000000      -0.14488256
Zn       0.00000000       0.00000000       3.41333333       0.00000000       0.00000000       0.14488256
2
Properties=species:S:1:pos:R:3:forces:R:3 energy=-14.739873626864602 pbc="F F F"
Zn       0.00000000       0.00000000       0.00000000       0.00000000       0.00000000      -0.14215513
Zn       0.00000000       0.00000000       3.47212121       0.00000000       0.00000000       0.14215513
2
Properties=species:S:1:pos:R:3:forces:R:3 energy=-14.748059794042216 pbc="F F F"
Zn       0.00000000       0.00000000       0.00000000       0.00000000       0.00000000      -0.13585922
Zn       0.00000000       0.00000000       3.53090909       0.00000000       0.00000000       0.13585922
2
Properties=species:S:1:pos:R:3:forces:R:3 energy=-14.755807207212879 pbc="F F F"
Zn       0.00000000       0.00000000       0.00000000       0.00000000       0.00000000      -0.12753220
Zn       0.00000000       0.00000000       3.58969697       0.00000000       0.00000000       0.12753220
2
Properties=species:S:1:pos:R:3:forces:R:3 energy=-14.763045925033632 pbc="F F F"
Zn       0.00000000       0.00000000       0.00000000       0.00000000       0.00000000      -0.11877193
Zn       0.00000000       0.00000000       3.64848485       0.00000000       0.00000000       0.11877193
2
Properties=species:S:1:pos:R:3:forces:R:3 energy=-14.769789935045052 pbc="F F F"
Zn       0.00000000       0.00000000       0.00000000       0.00000000       0.00000000      -0.11087942
Zn       0.00000000       0.00000000       3.70727273       0.00000000       0.00000000       0.11087942
2
Properties=species:S:1:pos:R:3:forces:R:3 energy=-14.776117149477313 pbc="F F F"
Zn       0.00000000       0.00000000       0.00000000       0.00000000       0.00000000      -0.10469522
Zn       0.00000000       0.00000000       3.76606061       0.00000000       0.00000000       0.10469522
2
Properties=species:S:1:pos:R:3:forces:R:3 energy=-14.782139819963582 pbc="F F F"
Zn       0.00000000       0.00000000       0.00000000       0.00000000       0.00000000      -0.10059388
Zn       0.00000000       0.00000000       3.82484848       0.00000000       0.00000000       0.10059388
2
Properties=species:S:1:pos:R:3:forces:R:3 energy=-14.78798453492999 pbc="F F F"
Zn       0.00000000       0.00000000       0.00000000       0.00000000       0.00000000      -0.09855211
Zn       0.00000000       0.00000000       3.88363636       0.00000000       0.00000000       0.09855211
2
Properties=species:S:1:pos:R:3:forces:R:3 energy=-14.793761702809466 pbc="F F F"
Zn       0.00000000       0.00000000       0.00000000       0.00000000       0.00000000      -0.09825611
Zn       0.00000000       0.00000000       3.94242424       0.00000000       0.00000000       0.09825611
2
Properties=species:S:1:pos:R:3:forces:R:3 energy=-14.799561736552517 pbc="F F F"
Zn       0.00000000       0.00000000       0.00000000       0.00000000       0.00000000      -0.09919754
Zn       0.00000000       0.00000000       4.00121212       0.00000000       0.00000000       0.09919754
2
Properties=species:S:1:pos:R:3:forces:R:3 energy=-14.805437904120602 pbc="F F F"
Zn       0.00000000       0.00000000       0.00000000       0.00000000       0.00000000      -0.10076495
Zn       0.00000000       0.00000000       4.06000000       0.00000000       0.00000000       0.10076495
2
Properties=species:S:1:pos:R:3:forces:R:3 energy=-14.811409184757338 pbc="F F F"
Zn       0.00000000       0.00000000       0.00000000       0.00000000       0.00000000      -0.10233525
Zn       0.00000000       0.00000000       4.11878788       0.00000000       0.00000000       0.10233525
2
Properties=species:S:1:pos:R:3:forces:R:3 energy=-14.817459325609612 pbc="F F F"
Zn       0.00000000       0.00000000       0.00000000       0.00000000       0.00000000      -0.10336127
Zn       0.00000000       0.00000000       4.17757576       0.00000000       0.00000000       0.10336127
2
Properties=species:S:1:pos:R:3:forces:R:3 energy=-14.823543522199532 pbc="F F F"
Zn       0.00000000       0.00000000       0.00000000       0.00000000       0.00000000      -0.10345186
Zn       0.00000000       0.00000000       4.23636364       0.00000000       0.00000000       0.10345186
2
Properties=species:S:1:pos:R:3:forces:R:3 energy=-14.82959986093231 pbc="F F F"
Zn       0.00000000       0.00000000       0.00000000       0.00000000       0.00000000      -0.10241450
Zn       0.00000000       0.00000000       4.29515152       0.00000000       0.00000000       0.10241450
2
Properties=species:S:1:pos:R:3:forces:R:3 energy=-14.835562691919485 pbc="F F F"
Zn       0.00000000       0.00000000       0.00000000       0.00000000       0.00000000      -0.10024190
Zn       0.00000000       0.00000000       4.35393939       0.00000000       0.00000000       0.10024190
2
Properties=species:S:1:pos:R:3:forces:R:3 energy=-14.84136642704513 pbc="F F F"
Zn       0.00000000       0.00000000       0.00000000       0.00000000       0.00000000      -0.09703863
Zn       0.00000000       0.00000000       4.41272727       0.00000000       0.00000000       0.09703863
2
Properties=species:S:1:pos:R:3:forces:R:3 energy=-14.846954132538169 pbc="F F F"
Zn       0.00000000       0.00000000       0.00000000       0.00000000       0.00000000      -0.09292917
Zn       0.00000000       0.00000000       4.47151515       0.00000000       0.00000000       0.09292917
2
Properties=species:S:1:pos:R:3:forces:R:3 energy=-14.85227562875133 pbc="F F F"
Zn       0.00000000       0.00000000       0.00000000       0.00000000       0.00000000      -0.08798523
Zn       0.00000000       0.00000000       4.53030303       0.00000000       0.00000000       0.08798523
2
Properties=species:S:1:pos:R:3:forces:R:3 energy=-14.857282710702206 pbc="F F F"
Zn       0.00000000       0.00000000       0.00000000       0.00000000       0.00000000      -0.08221409
Zn       0.00000000       0.00000000       4.58909091       0.00000000       0.00000000       0.08221409
2
Properties=species:S:1:pos:R:3:forces:R:3 energy=-14.861925335751831 pbc="F F F"
Zn       0.00000000       0.00000000       0.00000000       0.00000000       0.00000000      -0.07559858
Zn       0.00000000       0.00000000       4.64787879       0.00000000       0.00000000       0.07559858
2
Properties=species:S:1:pos:R:3:forces:R:3 energy=-14.866155442261748 pbc="F F F"
Zn       0.00000000       0.00000000       0.00000000       0.00000000       0.00000000      -0.06816556
Zn       0.00000000       0.00000000       4.70666667       0.00000000       0.00000000       0.06816556
2
Properties=species:S:1:pos:R:3:forces:R:3 energy=-14.869926930587061 pbc="F F F"
Zn       0.00000000       0.00000000       0.00000000       0.00000000       0.00000000      -0.06003882
Zn       0.00000000       0.00000000       4.76545455       0.00000000       0.00000000       0.06003882
2
Properties=species:S:1:pos:R:3:forces:R:3 energy=-14.8732052069472 pbc="F F F"
Zn       0.00000000       0.00000000       0.00000000       0.00000000       0.00000000      -0.05145217
Zn       0.00000000       0.00000000       4.82424242       0.00000000       0.00000000       0.05145217
2
Properties=species:S:1:pos:R:3:forces:R:3 energy=-14.87597384489094 pbc="F F F"
Zn       0.00000000       0.00000000       0.00000000       0.00000000       0.00000000      -0.04274052
Zn       0.00000000       0.00000000       4.88303030       0.00000000       0.00000000       0.04274052
2
Properties=species:S:1:pos:R:3:forces:R:3 energy=-14.8782355286753 pbc="F F F"
Zn       0.00000000       0.00000000       0.00000000       0.00000000       0.00000000      -0.03431107
Zn       0.00000000       0.00000000       4.94181818       0.00000000       0.00000000       0.03431107
2
Properties=species:S:1:pos:R:3:forces:R:3 energy=-14.88002253101172 pbc="F F F"
Zn       0.00000000       0.00000000       0.00000000       0.00000000       0.00000000      -0.02664118
Zn       0.00000000       0.00000000       5.00060606       0.00000000       0.00000000       0.02664118
2
Properties=species:S:1:pos:R:3:forces:R:3 energy=-14.881393857586819 pbc="F F F"
Zn       0.00000000       0.00000000       0.00000000       0.00000000       0.00000000      -0.02024963
Zn       0.00000000       0.00000000       5.05939394       0.00000000       0.00000000       0.02024963
2
Properties=species:S:1:pos:R:3:forces:R:3 energy=-14.882438076407105 pbc="F F F"
Zn       0.00000000       0.00000000       0.00000000       0.00000000       0.00000000      -0.01562356
Zn       0.00000000       0.00000000       5.11818182       0.00000000       0.00000000       0.01562356
2
Properties=species:S:1:pos:R:3:forces:R:3 energy=-14.88327141203427 pbc="F F F"
Zn       0.00000000       0.00000000       0.00000000       0.00000000       0.00000000      -0.01307669
Zn       0.00000000       0.00000000       5.17696970       0.00000000       0.00000000       0.01307669
2
Properties=species:S:1:pos:R:3:forces:R:3 energy=-14.884016748119148 pbc="F F F"
Zn       0.00000000       0.00000000       0.00000000       0.00000000       0.00000000      -0.01259057
Zn       0.00000000       0.00000000       5.23575758       0.00000000       0.00000000       0.01259057
2
Properties=species:S:1:pos:R:3:forces:R:3 energy=-14.88478359469739 pbc="F F F"
Zn       0.00000000       0.00000000       0.00000000       0.00000000       0.00000000      -0.01372255
Zn       0.00000000       0.00000000       5.29454545       0.00000000       0.00000000       0.01372255
2
Properties=species:S:1:pos:R:3:forces:R:3 energy=-14.885643284737684 pbc="F F F"
Zn       0.00000000       0.00000000       0.00000000       0.00000000       0.00000000      -0.01548375
Zn       0.00000000       0.00000000       5.35333333       0.00000000       0.00000000       0.01548375
2
Properties=species:S:1:pos:R:3:forces:R:3 energy=-14.886581271418994 pbc="F F F"
Zn       0.00000000       0.00000000       0.00000000       0.00000000       0.00000000      -0.01606105
Zn       0.00000000       0.00000000       5.41212121       0.00000000       0.00000000       0.01606105
2
Properties=species:S:1:pos:R:3:forces:R:3 energy=-14.887472337746049 pbc="F F F"
Zn       0.00000000       0.00000000       0.00000000       0.00000000       0.00000000      -0.01379132
Zn       0.00000000       0.00000000       5.47090909       0.00000000       0.00000000       0.01379132
2
Properties=species:S:1:pos:R:3:forces:R:3 energy=-14.888190256820419 pbc="F F F"
Zn       0.00000000       0.00000000       0.00000000       0.00000000       0.00000000      -0.01099457
Zn       0.00000000       0.00000000       5.52969697       0.00000000       0.00000000       0.01099457
2
Properties=species:S:1:pos:R:3:forces:R:3 energy=-14.888847156966333 pbc="F F F"
Zn       0.00000000       0.00000000       0.00000000       0.00000000       0.00000000      -0.01207292
Zn       0.00000000       0.00000000       5.58848485       0.00000000       0.00000000       0.01207292
2
Properties=species:S:1:pos:R:3:forces:R:3 energy=-14.889642854651933 pbc="F F F"
Zn       0.00000000       0.00000000       0.00000000       0.00000000       0.00000000      -0.01470427
Zn       0.00000000       0.00000000       5.64727273       0.00000000       0.00000000       0.01470427
2
Properties=species:S:1:pos:R:3:forces:R:3 energy=-14.890480499585111 pbc="F F F"
Zn       0.00000000       0.00000000       0.00000000       0.00000000       0.00000000      -0.01269131
Zn       0.00000000       0.00000000       5.70606061       0.00000000       0.00000000       0.01269131
2
Properties=species:S:1:pos:R:3:forces:R:3 energy=-14.891017130539664 pbc="F F F"
Zn       0.00000000       0.00000000       0.00000000       0.00000000       0.00000000      -0.00491287
Zn       0.00000000       0.00000000       5.76484848       0.00000000       0.00000000       0.00491287
2
Properties=species:S:1:pos:R:3:forces:R:3 energy=-14.891068045936736 pbc="F F F"
Zn       0.00000000       0.00000000       0.00000000       0.00000000       0.00000000       0.00251595
Zn       0.00000000       0.00000000       5.82363636       0.00000000       0.00000000      -0.00251595
2
Properties=species:S:1:pos:R:3:forces:R:3 energy=-14.890826125574899 pbc="F F F"
Zn       0.00000000       0.00000000       0.00000000       0.00000000       0.00000000       0.00486401
Zn       0.00000000       0.00000000       5.88242424       0.00000000       0.00000000      -0.00486401
2
Properties=species:S:1:pos:R:3:forces:R:3 energy=-14.890557630697986 pbc="F F F"
Zn       0.00000000       0.00000000       0.00000000       0.00000000       0.00000000       0.00405773
Zn       0.00000000       0.00000000       5.94121212       0.00000000       0.00000000      -0.00405773
2
Properties=species:S:1:pos:R:3:forces:R:3 energy=-14.890344709157802 pbc="F F F"
Zn       0.00000000       0.00000000       0.00000000       0.00000000       0.00000000       0.00336767
Zn       0.00000000       0.00000000       6.00000000       0.00000000       0.00000000      -0.00336767
