2
Properties=species:S:1:pos:R:3:forces:R:3 energy=55300.5625644299 pbc="F F F"
Ag       0.00000000       0.00000000       0.00000000       0.00000000       0.00000000 -612988.93750000
Ag       0.00000000       0.00000000       0.18000000       0.00000000       0.00000000  612988.93750000
2
Properties=species:S:1:pos:R:3:forces:R:3 energy=24778.638736304896 pbc="F F F"
Ag       0.00000000       0.00000000       0.00000000       0.00000000       0.00000000 -411115.06250000
Ag       0.00000000       0.00000000       0.23878788       0.00000000       0.00000000  411115.06250000
2
Properties=species:S:1:pos:R:3:forces:R:3 energy=8245.230533179898 pbc="F F F"
Ag       0.00000000       0.00000000       0.00000000       0.00000000       0.00000000 -148140.64062500
Ag       0.00000000       0.00000000       0.29757576       0.00000000       0.00000000  148140.64062500
2
Properties=species:S:1:pos:R:3:forces:R:3 energy=2576.045474589315 pbc="F F F"
Ag       0.00000000       0.00000000       0.00000000       0.00000000       0.00000000  -54281.59765625
Ag       0.00000000       0.00000000       0.35636364       0.00000000       0.00000000   54281.59765625
2
Properties=species:S:1:pos:R:3:forces:R:3 energy=828.7589145370567 pbc="F F F"
Ag       0.00000000       0.00000000       0.00000000       0.00000000       0.00000000  -12090.95996094
Ag       0.00000000       0.00000000       0.41515152       0.00000000       0.00000000   12090.95996094
2
Properties=species:S:1:pos:R:3:forces:R:3 energy=365.2463413107084 pbc="F F F"
Ag       0.00000000       0.00000000       0.00000000       0.00000000       0.00000000   -4956.12500000
Ag       0.00000000       0.00000000       0.47393939       0.00000000       0.00000000    4956.12500000
2
Properties=species:S:1:pos:R:3:forces:R:3 energy=172.89564859019535 pbc="F F F"
Ag       0.00000000       0.00000000       0.00000000       0.00000000       0.00000000   -2115.99584961
Ag       0.00000000       0.00000000       0.53272727       0.00000000       0.00000000    2115.99584961
2
Properties=species:S:1:pos:R:3:forces:R:3 energy=87.83515516847442 pbc="F F F"
Ag       0.00000000       0.00000000       0.00000000       0.00000000       0.00000000    -954.54669189
Ag       0.00000000       0.00000000       0.59151515       0.00000000       0.00000000     954.54669189
2
Properties=species:S:1:pos:R:3:forces:R:3 energy=49.34282660703896 pbc="F F F"
Ag       0.00000000       0.00000000       0.00000000       0.00000000       0.00000000    -408.18130493
Ag       0.00000000       0.00000000       0.65030303       0.00000000       0.00000000     408.18130493
2
Properties=species:S:1:pos:R:3:forces:R:3 energy=35.17020405308778 pbc="F F F"
Ag       0.00000000       0.00000000       0.00000000       0.00000000       0.00000000    -131.32904053
Ag       0.00000000       0.00000000       0.70909091       0.00000000       0.00000000     131.32904053
2
Properties=species:S:1:pos:R:3:forces:R:3 energy=33.59623726951229 pbc="F F F"
Ag       0.00000000       0.00000000       0.00000000       0.00000000       0.00000000      16.39786339
Ag       0.00000000       0.00000000       0.76787879       0.00000000       0.00000000     -16.39786339
2
Properties=species:S:1:pos:R:3:forces:R:3 energy=41.96509208048918 pbc="F F F"
Ag       0.00000000       0.00000000       0.00000000       0.00000000       0.00000000     508.96499634
Ag       0.00000000       0.00000000       0.82666667       0.00000000       0.00000000    -508.96499634
2
Properties=species:S:1:pos:R:3:forces:R:3 energy=66.84991914929448 pbc="F F F"
Ag       0.00000000       0.00000000       0.00000000       0.00000000       0.00000000     234.35517883
Ag       0.00000000       0.00000000       0.88545455       0.00000000       0.00000000    -234.35517883
2
Properties=species:S:1:pos:R:3:forces:R:3 energy=73.48544066089671 pbc="F F F"
Ag       0.00000000       0.00000000       0.00000000       0.00000000       0.00000000      22.17673492
Ag       0.00000000       0.00000000       0.94424242       0.00000000       0.00000000     -22.17673492
2
Properties=species:S:1:pos:R:3:forces:R:3 energy=71.51984239279365 pbc="F F F"
Ag       0.00000000       0.00000000       0.00000000       0.00000000       0.00000000     -65.08769226
Ag       0.00000000       0.00000000       1.00303030       0.00000000       0.00000000      65.08769226
2
Properties=species:S:1:pos:R:3:forces:R:3 energy=68.18298280994708 pbc="F F F"
Ag       0.00000000       0.00000000       0.00000000       0.00000000       0.00000000     -46.90489578
Ag       0.00000000       0.00000000       1.06181818       0.00000000       0.00000000      46.90489578
2
Properties=species:S:1:pos:R:3:forces:R:3 energy=64.5523384803461 pbc="F F F"
Ag       0.00000000       0.00000000       0.00000000       0.00000000       0.00000000     -81.72459412
Ag       0.00000000       0.00000000       1.12060606       0.00000000       0.00000000      81.72459412
2
Properties=species:S:1:pos:R:3:forces:R:3 energy=58.744726970222786 pbc="F F F"
Ag       0.00000000       0.00000000       0.00000000       0.00000000       0.00000000    -113.34416199
Ag       0.00000000       0.00000000       1.17939394       0.00000000       0.00000000     113.34416199
2
Properties=species:S:1:pos:R:3:forces:R:3 energy=52.035390235921916 pbc="F F F"
Ag       0.00000000       0.00000000       0.00000000       0.00000000       0.00000000    -125.45288086
Ag       0.00000000       0.00000000       1.23818182       0.00000000       0.00000000     125.45288086
2
Properties=species:S:1:pos:R:3:forces:R:3 energy=44.3836980635802 pbc="F F F"
Ag       0.00000000       0.00000000       0.00000000       0.00000000       0.00000000    -134.85424805
Ag       0.00000000       0.00000000       1.29696970       0.00000000       0.00000000     134.85424805
2
Properties=species:S:1:pos:R:3:forces:R:3 energy=36.674385706339336 pbc="F F F"
Ag       0.00000000       0.00000000       0.00000000       0.00000000       0.00000000    -127.62933350
Ag       0.00000000       0.00000000       1.35575758       0.00000000       0.00000000     127.62933350
2
Properties=species:S:1:pos:R:3:forces:R:3 energy=29.347251684028606 pbc="F F F"
Ag       0.00000000       0.00000000       0.00000000       0.00000000       0.00000000    -118.77962494
Ag       0.00000000       0.00000000       1.41454545       0.00000000       0.00000000     118.77962494
2
Properties=species:S:1:pos:R:3:forces:R:3 energy=22.91449559807628 pbc="F F F"
Ag       0.00000000       0.00000000       0.00000000       0.00000000       0.00000000     -98.74968719
Ag       0.00000000       0.00000000       1.47333333       0.00000000       0.00000000      98.74968719
2
Properties=species:S:1:pos:R:3:forces:R:3 energy=17.7314567236907 pbc="F F F"
Ag       0.00000000       0.00000000       0.00000000       0.00000000       0.00000000     -78.92314148
Ag       0.00000000       0.00000000       1.53212121       0.00000000       0.00000000      78.92314148
2
Properties=species:S:1:pos:R:3:forces:R:3 energy=13.5952220331637 pbc="F F F"
Ag       0.00000000       0.00000000       0.00000000       0.00000000       0.00000000     -62.32461929
Ag       0.00000000       0.00000000       1.59090909       0.00000000       0.00000000      62.32461929
2
Properties=species:S:1:pos:R:3:forces:R:3 energy=10.310172241140682 pbc="F F F"
Ag       0.00000000       0.00000000       0.00000000       0.00000000       0.00000000     -49.42599487
Ag       0.00000000       0.00000000       1.64969697       0.00000000       0.00000000      49.42599487
2
Properties=species:S:1:pos:R:3:forces:R:3 energy=7.735446639514013 pbc="F F F"
Ag       0.00000000       0.00000000       0.00000000       0.00000000       0.00000000     -38.48761749
Ag       0.00000000       0.00000000       1.70848485       0.00000000       0.00000000      38.48761749
2
Properties=species:S:1:pos:R:3:forces:R:3 energy=5.752882490093202 pbc="F F F"
Ag       0.00000000       0.00000000       0.00000000       0.00000000       0.00000000     -29.72868347
Ag       0.00000000       0.00000000       1.76727273       0.00000000       0.00000000      29.72868347
2
Properties=species:S:1:pos:R:3:forces:R:3 energy=4.159281307606896 pbc="F F F"
Ag       0.00000000       0.00000000       0.00000000       0.00000000       0.00000000     -24.72444916
Ag       0.00000000       0.00000000       1.82606061       0.00000000       0.00000000      24.72444916
2
Properties=species:S:1:pos:R:3:forces:R:3 energy=2.8315570862338872 pbc="F F F"
Ag       0.00000000       0.00000000       0.00000000       0.00000000       0.00000000     -20.66893959
Ag       0.00000000       0.00000000       1.88484848       0.00000000       0.00000000      20.66893959
2
Properties=species:S:1:pos:R:3:forces:R:3 energy=1.7214129117436878 pbc="F F F"
Ag       0.00000000       0.00000000       0.00000000       0.00000000       0.00000000     -17.03863907
Ag       0.00000000       0.00000000       1.94363636       0.00000000       0.00000000      17.03863907
2
Properties=species:S:1:pos:R:3:forces:R:3 energy=0.8198676116185047 pbc="F F F"
Ag       0.00000000       0.00000000       0.00000000       0.00000000       0.00000000     -13.79024029
Ag       0.00000000       0.00000000       2.00242424       0.00000000       0.00000000      13.79024029
2
Properties=species:S:1:pos:R:3:forces:R:3 energy=0.086000503641961 pbc="F F F"
Ag       0.00000000       0.00000000       0.00000000       0.00000000       0.00000000     -11.23824120
Ag       0.00000000       0.00000000       2.06121212       0.00000000       0.00000000      11.23824120
2
Properties=species:S:1:pos:R:3:forces:R:3 energy=-0.503964175960548 pbc="F F F"
Ag       0.00000000       0.00000000       0.00000000       0.00000000       0.00000000      -8.83940601
Ag       0.00000000       0.00000000       2.12000000       0.00000000       0.00000000       8.83940601
2
Properties=species:S:1:pos:R:3:forces:R:3 energy=-0.9595755539439232 pbc="F F F"
Ag       0.00000000       0.00000000       0.00000000       0.00000000       0.00000000      -6.75979090
Ag       0.00000000       0.00000000       2.17878788       0.00000000       0.00000000       6.75979090
2
Properties=species:S:1:pos:R:3:forces:R:3 energy=-1.307289971349556 pbc="F F F"
Ag       0.00000000       0.00000000       0.00000000       0.00000000       0.00000000      -5.10748100
Ag       0.00000000       0.00000000       2.23757576       0.00000000       0.00000000       5.10748100
2
Properties=species:S:1:pos:R:3:forces:R:3 energy=-1.5651962909553099 pbc="F F F"
Ag       0.00000000       0.00000000       0.00000000       0.00000000       0.00000000      -3.71578455
Ag       0.00000000       0.00000000       2.29636364       0.00000000       0.00000000       3.71578455
2
Properties=species:S:1:pos:R:3:forces:R:3 energy=-1.7492202084426685 pbc="F F F"
Ag       0.00000000       0.00000000       0.00000000       0.00000000       0.00000000      -2.58483219
Ag       0.00000000       0.00000000       2.35515152       0.00000000       0.00000000       2.58483219
2
Properties=species:S:1:pos:R:3:forces:R:3 energy=-1.874313604646535 pbc="F F F"
Ag       0.00000000       0.00000000       0.00000000       0.00000000       0.00000000      -1.71491194
Ag       0.00000000       0.00000000       2.41393939       0.00000000       0.00000000       1.71491194
2
Properties=species:S:1:pos:R:3:forces:R:3 energy=-1.9554271229676397 pbc="F F F"
Ag       0.00000000       0.00000000       0.00000000       0.00000000       0.00000000      -1.07998216
Ag       0.00000000       0.00000000       2.47272727       0.00000000       0.00000000       1.07998216
2
Properties=species:S:1:pos:R:3:forces:R:3 energy=-2.004718717803154 pbc="F F F"
Ag       0.00000000       0.00000000       0.00000000       0.00000000       0.00000000      -0.61766970
Ag       0.00000000       0.00000000       2.53151515       0.00000000       0.00000000       0.61766970
2
Properties=species:S:1:pos:R:3:forces:R:3 energy=-2.0298997873892866 pbc="F F F"
Ag       0.00000000       0.00000000       0.00000000       0.00000000       0.00000000      -0.25301087
Ag       0.00000000       0.00000000       2.59030303       0.00000000       0.00000000       0.25301087
2
Properties=species:S:1:pos:R:3:forces:R:3 energy=-2.0360874337595694 pbc="F F F"
Ag       0.00000000       0.00000000       0.00000000       0.00000000       0.00000000       0.02936628
Ag       0.00000000       0.00000000       2.64909091       0.00000000       0.00000000      -0.02936628
2
Properties=species:S:1:pos:R:3:forces:R:3 energy=-2.027801419454281 pbc="F F F"
Ag       0.00000000       0.00000000       0.00000000       0.00000000       0.00000000       0.24288563
Ag       0.00000000       0.00000000       2.70787879       0.00000000       0.00000000      -0.24288563
2
Properties=species:S:1:pos:R:3:forces:R:3 energy=-2.0085166437537407 pbc="F F F"
Ag       0.00000000       0.00000000       0.00000000       0.00000000       0.00000000       0.40534016
Ag       0.00000000       0.00000000       2.76666667       0.00000000       0.00000000      -0.40534016
2
Properties=species:S:1:pos:R:3:forces:R:3 energy=-1.981083775034976 pbc="F F F"
Ag       0.00000000       0.00000000       0.00000000       0.00000000       0.00000000       0.51978832
Ag       0.00000000       0.00000000       2.82545455       0.00000000       0.00000000      -0.51978832
2
Properties=species:S:1:pos:R:3:forces:R:3 energy=-1.9483376381281325 pbc="F F F"
Ag       0.00000000       0.00000000       0.00000000       0.00000000       0.00000000       0.58676571
Ag       0.00000000       0.00000000       2.88424242       0.00000000       0.00000000      -0.58676571
2
Properties=species:S:1:pos:R:3:forces:R:3 energy=-1.912872926462052 pbc="F F F"
Ag       0.00000000       0.00000000       0.00000000       0.00000000       0.00000000       0.61420876
Ag       0.00000000       0.00000000       2.94303030       0.00000000       0.00000000      -0.61420876
2
Properties=species:S:1:pos:R:3:forces:R:3 energy=-1.8766148221885575 pbc="F F F"
Ag       0.00000000       0.00000000       0.00000000       0.00000000       0.00000000       0.61659652
Ag       0.00000000       0.00000000       3.00181818       0.00000000       0.00000000      -0.61659652
2
Properties=species:S:1:pos:R:3:forces:R:3 energy=-1.8405303579310424 pbc="F F F"
Ag       0.00000000       0.00000000       0.00000000       0.00000000       0.00000000       0.61091828
Ag       0.00000000       0.00000000       3.06060606       0.00000000       0.00000000      -0.61091828
2
Properties=species:S:1:pos:R:3:forces:R:3 energy=-1.8047209188200943 pbc="F F F"
Ag       0.00000000       0.00000000       0.00000000       0.00000000       0.00000000       0.60819340
Ag       0.00000000       0.00000000       3.11939394       0.00000000       0.00000000      -0.60819340
2
Properties=species:S:1:pos:R:3:forces:R:3 energy=-1.7689393015606067 pbc="F F F"
Ag       0.00000000       0.00000000       0.00000000       0.00000000       0.00000000       0.60947084
Ag       0.00000000       0.00000000       3.17818182       0.00000000       0.00000000      -0.60947084
2
Properties=species:S:1:pos:R:3:forces:R:3 energy=-1.7330630412590393 pbc="F F F"
Ag       0.00000000       0.00000000       0.00000000       0.00000000       0.00000000       0.61064702
Ag       0.00000000       0.00000000       3.23696970       0.00000000       0.00000000      -0.61064702
2
Properties=species:S:1:pos:R:3:forces:R:3 energy=-1.6972376579875799 pbc="F F F"
Ag       0.00000000       0.00000000       0.00000000       0.00000000       0.00000000       0.60703897
Ag       0.00000000       0.00000000       3.29575758       0.00000000       0.00000000      -0.60703897
2
Properties=species:S:1:pos:R:3:forces:R:3 energy=-1.6618486418812555 pbc="F F F"
Ag       0.00000000       0.00000000       0.00000000       0.00000000       0.00000000       0.59545517
Ag       0.00000000       0.00000000       3.35454545       0.00000000       0.00000000      -0.59545517
2
Properties=species:S:1:pos:R:3:forces:R:3 energy=-1.6273951192682308 pbc="F F F"
Ag       0.00000000       0.00000000       0.00000000       0.00000000       0.00000000       0.57535130
Ag       0.00000000       0.00000000       3.41333333       0.00000000       0.00000000      -0.57535130
2
Properties=species:S:1:pos:R:3:forces:R:3 energy=-1.5943289587133482 pbc="F F F"
Ag       0.00000000       0.00000000       0.00000000       0.00000000       0.00000000       0.54877222
Ag       0.00000000       0.00000000       3.47212121       0.00000000       0.00000000      -0.54877222
2
Properties=species:S:1:pos:R:3:forces:R:3 energy=-1.562936017448087 pbc="F F F"
Ag       0.00000000       0.00000000       0.00000000       0.00000000       0.00000000       0.51897573
Ag       0.00000000       0.00000000       3.53090909       0.00000000       0.00000000      -0.51897573
2
Properties=species:S:1:pos:R:3:forces:R:3 energy=-1.533318510173235 pbc="F F F"
Ag       0.00000000       0.00000000       0.00000000       0.00000000       0.00000000       0.48867860
Ag       0.00000000       0.00000000       3.58969697       0.00000000       0.00000000      -0.48867860
2
Properties=species:S:1:pos:R:3:forces:R:3 energy=-1.5054604772152784 pbc="F F F"
Ag       0.00000000       0.00000000       0.00000000       0.00000000       0.00000000       0.45929465
Ag       0.00000000       0.00000000       3.64848485       0.00000000       0.00000000      -0.45929465
2
Properties=species:S:1:pos:R:3:forces:R:3 energy=-1.4792897800776512 pbc="F F F"
Ag       0.00000000       0.00000000       0.00000000       0.00000000       0.00000000       0.43128800
Ag       0.00000000       0.00000000       3.70727273       0.00000000       0.00000000      -0.43128800
2
Properties=species:S:1:pos:R:3:forces:R:3 energy=-1.4547225883771255 pbc="F F F"
Ag       0.00000000       0.00000000       0.00000000       0.00000000       0.00000000       0.40475664
Ag       0.00000000       0.00000000       3.76606061       0.00000000       0.00000000      -0.40475664
2
Properties=species:S:1:pos:R:3:forces:R:3 energy=-1.431671604469208 pbc="F F F"
Ag       0.00000000       0.00000000       0.00000000       0.00000000       0.00000000       0.37966451
Ag       0.00000000       0.00000000       3.82484848       0.00000000       0.00000000      -0.37966451
2
Properties=species:S:1:pos:R:3:forces:R:3 energy=-1.4100584308801671 pbc="F F F"
Ag       0.00000000       0.00000000       0.00000000       0.00000000       0.00000000       0.35578737
Ag       0.00000000       0.00000000       3.88363636       0.00000000       0.00000000      -0.35578737
2
Properties=species:S:1:pos:R:3:forces:R:3 energy=-1.3898246364362274 pbc="F F F"
Ag       0.00000000       0.00000000       0.00000000       0.00000000       0.00000000       0.33268559
Ag       0.00000000       0.00000000       3.94242424       0.00000000       0.00000000      -0.33268559
2
Properties=species:S:1:pos:R:3:forces:R:3 energy=-1.3709384493268801 pbc="F F F"
Ag       0.00000000       0.00000000       0.00000000       0.00000000       0.00000000       0.30984485
Ag       0.00000000       0.00000000       4.00121212       0.00000000       0.00000000      -0.30984485
2
Properties=species:S:1:pos:R:3:forces:R:3 energy=-1.353396224798307 pbc="F F F"
Ag       0.00000000       0.00000000       0.00000000       0.00000000       0.00000000       0.28692788
Ag       0.00000000       0.00000000       4.06000000       0.00000000       0.00000000      -0.28692788
2
Properties=species:S:1:pos:R:3:forces:R:3 energy=-1.3372031839336254 pbc="F F F"
Ag       0.00000000       0.00000000       0.00000000       0.00000000       0.00000000       0.26395515
Ag       0.00000000       0.00000000       4.11878788       0.00000000       0.00000000      -0.26395515
2
Properties=species:S:1:pos:R:3:forces:R:3 energy=-1.3223557033218543 pbc="F F F"
Ag       0.00000000       0.00000000       0.00000000       0.00000000       0.00000000       0.24129461
Ag       0.00000000       0.00000000       4.17757576       0.00000000       0.00000000      -0.24129461
2
Properties=species:S:1:pos:R:3:forces:R:3 energy=-1.3088164886793816 pbc="F F F"
Ag       0.00000000       0.00000000       0.00000000       0.00000000       0.00000000       0.21950714
Ag       0.00000000       0.00000000       4.23636364       0.00000000       0.00000000      -0.21950714
2
Properties=species:S:1:pos:R:3:forces:R:3 energy=-1.2965180362551376 pbc="F F F"
Ag       0.00000000       0.00000000       0.00000000       0.00000000       0.00000000       0.19916044
Ag       0.00000000       0.00000000       4.29515152       0.00000000       0.00000000      -0.19916044
2
Properties=species:S:1:pos:R:3:forces:R:3 energy=-1.285362547299395 pbc="F F F"
Ag       0.00000000       0.00000000       0.00000000       0.00000000       0.00000000       0.18069099
Ag       0.00000000       0.00000000       4.35393939       0.00000000       0.00000000      -0.18069099
2
Properties=species:S:1:pos:R:3:forces:R:3 energy=-1.2752316850504992 pbc="F F F"
Ag       0.00000000       0.00000000       0.00000000       0.00000000       0.00000000       0.16433372
Ag       0.00000000       0.00000000       4.41272727       0.00000000       0.00000000      -0.16433372
2
Properties=species:S:1:pos:R:3:forces:R:3 energy=-1.2659997004280052 pbc="F F F"
Ag       0.00000000       0.00000000       0.00000000       0.00000000       0.00000000       0.15010051
Ag       0.00000000       0.00000000       4.47151515       0.00000000       0.00000000      -0.15010051
2
Properties=species:S:1:pos:R:3:forces:R:3 energy=-1.2575454963455497 pbc="F F F"
Ag       0.00000000       0.00000000       0.00000000       0.00000000       0.00000000       0.13780026
Ag       0.00000000       0.00000000       4.53030303       0.00000000       0.00000000      -0.13780026
2
Properties=species:S:1:pos:R:3:forces:R:3 energy=-1.249765108672256 pbc="F F F"
Ag       0.00000000       0.00000000       0.00000000       0.00000000       0.00000000       0.12709451
Ag       0.00000000       0.00000000       4.58909091       0.00000000       0.00000000      -0.12709451
2
Properties=species:S:1:pos:R:3:forces:R:3 energy=-1.2425795455354476 pbc="F F F"
Ag       0.00000000       0.00000000       0.00000000       0.00000000       0.00000000       0.11759348
Ag       0.00000000       0.00000000       4.64787879       0.00000000       0.00000000      -0.11759348
2
Properties=species:S:1:pos:R:3:forces:R:3 energy=-1.23592355630485 pbc="F F F"
Ag       0.00000000       0.00000000       0.00000000       0.00000000       0.00000000       0.10895032
Ag       0.00000000       0.00000000       4.70666667       0.00000000       0.00000000      -0.10895032
2
Properties=species:S:1:pos:R:3:forces:R:3 energy=-1.229756503812568 pbc="F F F"
Ag       0.00000000       0.00000000       0.00000000       0.00000000       0.00000000       0.10094887
Ag       0.00000000       0.00000000       4.76545455       0.00000000       0.00000000      -0.10094887
2
Properties=species:S:1:pos:R:3:forces:R:3 energy=-1.2240421494590146 pbc="F F F"
Ag       0.00000000       0.00000000       0.00000000       0.00000000       0.00000000       0.09353048
Ag       0.00000000       0.00000000       4.82424242       0.00000000       0.00000000      -0.09353048
2
Properties=species:S:1:pos:R:3:forces:R:3 energy=-1.2187469747793913 pbc="F F F"
Ag       0.00000000       0.00000000       0.00000000       0.00000000       0.00000000       0.08677309
Ag       0.00000000       0.00000000       4.88303030       0.00000000       0.00000000      -0.08677309
2
Properties=species:S:1:pos:R:3:forces:R:3 energy=-1.2138248893924937 pbc="F F F"
Ag       0.00000000       0.00000000       0.00000000       0.00000000       0.00000000       0.08081795
Ag       0.00000000       0.00000000       4.94181818       0.00000000       0.00000000      -0.08081795
2
Properties=species:S:1:pos:R:3:forces:R:3 energy=-1.2092261380193348 pbc="F F F"
Ag       0.00000000       0.00000000       0.00000000       0.00000000       0.00000000       0.07577386
Ag       0.00000000       0.00000000       5.00060606       0.00000000       0.00000000      -0.07577386
2
Properties=species:S:1:pos:R:3:forces:R:3 energy=-1.2048973606717672 pbc="F F F"
Ag       0.00000000       0.00000000       0.00000000       0.00000000       0.00000000       0.07163438
Ag       0.00000000       0.00000000       5.05939394       0.00000000       0.00000000      -0.07163438
2
Properties=species:S:1:pos:R:3:forces:R:3 energy=-1.2007892125435475 pbc="F F F"
Ag       0.00000000       0.00000000       0.00000000       0.00000000       0.00000000       0.06823379
Ag       0.00000000       0.00000000       5.11818182       0.00000000       0.00000000      -0.06823379
2
Properties=species:S:1:pos:R:3:forces:R:3 energy=-1.1968662120319884 pbc="F F F"
Ag       0.00000000       0.00000000       0.00000000       0.00000000       0.00000000       0.06525618
Ag       0.00000000       0.00000000       5.17696970       0.00000000       0.00000000      -0.06525618
2
Properties=species:S:1:pos:R:3:forces:R:3 energy=-1.1931168461851238 pbc="F F F"
Ag       0.00000000       0.00000000       0.00000000       0.00000000       0.00000000       0.06229054
Ag       0.00000000       0.00000000       5.23575758       0.00000000       0.00000000      -0.06229054
2
Properties=species:S:1:pos:R:3:forces:R:3 energy=-1.1895514217666745 pbc="F F F"
Ag       0.00000000       0.00000000       0.00000000       0.00000000       0.00000000       0.05892162
Ag       0.00000000       0.00000000       5.29454545       0.00000000       0.00000000      -0.05892162
2
Properties=species:S:1:pos:R:3:forces:R:3 energy=-1.1862031266363178 pbc="F F F"
Ag       0.00000000       0.00000000       0.00000000       0.00000000       0.00000000       0.05482845
Ag       0.00000000       0.00000000       5.35333333       0.00000000       0.00000000      -0.05482845
2
Properties=species:S:1:pos:R:3:forces:R:3 energy=-1.183122307703789 pbc="F F F"
Ag       0.00000000       0.00000000       0.00000000       0.00000000       0.00000000       0.04984919
Ag       0.00000000       0.00000000       5.41212121       0.00000000       0.00000000      -0.04984919
2
Properties=species:S:1:pos:R:3:forces:R:3 energy=-1.1803579471396202 pbc="F F F"
Ag       0.00000000       0.00000000       0.00000000       0.00000000       0.00000000       0.04403015
Ag       0.00000000       0.00000000       5.47090909       0.00000000       0.00000000      -0.04403015
2
Properties=species:S:1:pos:R:3:forces:R:3 energy=-1.1779565185915342 pbc="F F F"
Ag       0.00000000       0.00000000       0.00000000       0.00000000       0.00000000       0.03760913
Ag       0.00000000       0.00000000       5.52969697       0.00000000       0.00000000      -0.03760913
2
Properties=species:S:1:pos:R:3:forces:R:3 energy=-1.1759409984299263 pbc="F F F"
Ag       0.00000000       0.00000000       0.00000000       0.00000000       0.00000000       0.03097759
Ag       0.00000000       0.00000000       5.58848485       0.00000000       0.00000000      -0.03097759
2
Properties=species:S:1:pos:R:3:forces:R:3 energy=-1.1743095461101662 pbc="F F F"
Ag       0.00000000       0.00000000       0.00000000       0.00000000       0.00000000       0.02460256
Ag       0.00000000       0.00000000       5.64727273       0.00000000       0.00000000      -0.02460256
2
Properties=species:S:1:pos:R:3:forces:R:3 energy=-1.1730347295201946 pbc="F F F"
Ag       0.00000000       0.00000000       0.00000000       0.00000000       0.00000000       0.01893655
Ag       0.00000000       0.00000000       5.70606061       0.00000000       0.00000000      -0.01893655
2
Properties=species:S:1:pos:R:3:forces:R:3 energy=-1.1720619265345134 pbc="F F F"
Ag       0.00000000       0.00000000       0.00000000       0.00000000       0.00000000       0.01432775
Ag       0.00000000       0.00000000       5.76484848       0.00000000       0.00000000      -0.01432775
2
Properties=species:S:1:pos:R:3:forces:R:3 energy=-1.1713248665713356 pbc="F F F"
Ag       0.00000000       0.00000000       0.00000000       0.00000000       0.00000000       0.01097435
Ag       0.00000000       0.00000000       5.82363636       0.00000000       0.00000000      -0.01097435
2
Properties=species:S:1:pos:R:3:forces:R:3 energy=-1.1707477256746446 pbc="F F F"
Ag       0.00000000       0.00000000       0.00000000       0.00000000       0.00000000       0.00884991
Ag       0.00000000       0.00000000       5.88242424       0.00000000       0.00000000      -0.00884991
2
Properties=species:S:1:pos:R:3:forces:R:3 energy=-1.1702647370263 pbc="F F F"
Ag       0.00000000       0.00000000       0.00000000       0.00000000       0.00000000       0.00772187
Ag       0.00000000       0.00000000       5.94121212       0.00000000       0.00000000      -0.00772187
2
Properties=species:S:1:pos:R:3:forces:R:3 energy=-1.1698280650947936 pbc="F F F"
Ag       0.00000000       0.00000000       0.00000000       0.00000000       0.00000000       0.00717060
Ag       0.00000000       0.00000000       6.00000000       0.00000000       0.00000000      -0.00717060
