2
Properties=species:S:1:pos:R:3:forces:R:3 energy=12604.314079730477 pbc="F F F"
Al       0.00000000       0.00000000       0.00000000       0.00000000       0.00000000 -153658.76562500
Al       0.00000000       0.00000000       0.18000000       0.00000000       0.00000000  153658.76562500
2
Properties=species:S:1:pos:R:3:forces:R:3 energy=5154.131462542976 pbc="F F F"
Al       0.00000000       0.00000000       0.00000000       0.00000000       0.00000000  -95912.39062500
Al       0.00000000       0.00000000       0.23878788       0.00000000       0.00000000   95912.39062500
2
Properties=species:S:1:pos:R:3:forces:R:3 energy=1345.4300465273514 pbc="F F F"
Al       0.00000000       0.00000000       0.00000000       0.00000000       0.00000000  -36966.65234375
Al       0.00000000       0.00000000       0.29757576       0.00000000       0.00000000   36966.65234375
2
Properties=species:S:1:pos:R:3:forces:R:3 energy=187.46419570994442 pbc="F F F"
Al       0.00000000       0.00000000       0.00000000       0.00000000       0.00000000   -7844.69873047
Al       0.00000000       0.00000000       0.35636364       0.00000000       0.00000000    7844.69873047
2
Properties=species:S:1:pos:R:3:forces:R:3 energy=34.31263778758114 pbc="F F F"
Al       0.00000000       0.00000000       0.00000000       0.00000000       0.00000000   -2709.69213867
Al       0.00000000       0.00000000       0.41515152       0.00000000       0.00000000    2709.69213867
2
Properties=species:S:1:pos:R:3:forces:R:3 energy=-44.36886929767199 pbc="F F F"
Al       0.00000000       0.00000000       0.00000000       0.00000000       0.00000000    -216.29376221
Al       0.00000000       0.00000000       0.47393939       0.00000000       0.00000000     216.29376221
2
Properties=species:S:1:pos:R:3:forces:R:3 energy=-40.637599423232345 pbc="F F F"
Al       0.00000000       0.00000000       0.00000000       0.00000000       0.00000000     388.19711304
Al       0.00000000       0.00000000       0.53272727       0.00000000       0.00000000    -388.19711304
2
Properties=species:S:1:pos:R:3:forces:R:3 energy=-26.747336756116134 pbc="F F F"
Al       0.00000000       0.00000000       0.00000000       0.00000000       0.00000000     132.97407532
Al       0.00000000       0.00000000       0.59151515       0.00000000       0.00000000    -132.97407532
2
Properties=species:S:1:pos:R:3:forces:R:3 energy=-20.90858772286106 pbc="F F F"
Al       0.00000000       0.00000000       0.00000000       0.00000000       0.00000000      78.81715393
Al       0.00000000       0.00000000       0.65030303       0.00000000       0.00000000     -78.81715393
2
Properties=species:S:1:pos:R:3:forces:R:3 energy=-17.01527891860794 pbc="F F F"
Al       0.00000000       0.00000000       0.00000000       0.00000000       0.00000000      59.06747437
Al       0.00000000       0.00000000       0.70909091       0.00000000       0.00000000     -59.06747437
2
Properties=species:S:1:pos:R:3:forces:R:3 energy=-14.194369165060099 pbc="F F F"
Al       0.00000000       0.00000000       0.00000000       0.00000000       0.00000000      39.82167053
Al       0.00000000       0.00000000       0.76787879       0.00000000       0.00000000     -39.82167053
2
Properties=species:S:1:pos:R:3:forces:R:3 energy=-12.171328979782672 pbc="F F F"
Al       0.00000000       0.00000000       0.00000000       0.00000000       0.00000000      30.98190498
Al       0.00000000       0.00000000       0.82666667       0.00000000       0.00000000     -30.98190498
2
Properties=species:S:1:pos:R:3:forces:R:3 energy=-10.054114251043336 pbc="F F F"
Al       0.00000000       0.00000000       0.00000000       0.00000000       0.00000000      38.44671249
Al       0.00000000       0.00000000       0.88545455       0.00000000       0.00000000     -38.44671249
2
Properties=species:S:1:pos:R:3:forces:R:3 energy=-6.7740412975537145 pbc="F F F"
Al       0.00000000       0.00000000       0.00000000       0.00000000       0.00000000     104.40575409
Al       0.00000000       0.00000000       0.94424242       0.00000000       0.00000000    -104.40575409
2
Properties=species:S:1:pos:R:3:forces:R:3 energy=3.106882999999861 pbc="F F F"
Al       0.00000000       0.00000000       0.00000000       0.00000000       0.00000000     204.83599854
Al       0.00000000       0.00000000       1.00303030       0.00000000       0.00000000    -204.83599854
2
Properties=species:S:1:pos:R:3:forces:R:3 energy=14.10902822836231 pbc="F F F"
Al       0.00000000       0.00000000       0.00000000       0.00000000       0.00000000     166.32223511
Al       0.00000000       0.00000000       1.06181818       0.00000000       0.00000000    -166.32223511
2
Properties=species:S:1:pos:R:3:forces:R:3 energy=22.47669152916312 pbc="F F F"
Al       0.00000000       0.00000000       0.00000000       0.00000000       0.00000000     111.16944122
Al       0.00000000       0.00000000       1.12060606       0.00000000       0.00000000    -111.16944122
2
Properties=species:S:1:pos:R:3:forces:R:3 energy=26.262109579786372 pbc="F F F"
Al       0.00000000       0.00000000       0.00000000       0.00000000       0.00000000       8.30227184
Al       0.00000000       0.00000000       1.17939394       0.00000000       0.00000000      -8.30227184
2
Properties=species:S:1:pos:R:3:forces:R:3 energy=25.201634467467212 pbc="F F F"
Al       0.00000000       0.00000000       0.00000000       0.00000000       0.00000000     -41.75060272
Al       0.00000000       0.00000000       1.23818182       0.00000000       0.00000000      41.75060272
2
Properties=species:S:1:pos:R:3:forces:R:3 energy=22.181855407225367 pbc="F F F"
Al       0.00000000       0.00000000       0.00000000       0.00000000       0.00000000     -57.44996643
Al       0.00000000       0.00000000       1.29696970       0.00000000       0.00000000      57.44996643
2
Properties=species:S:1:pos:R:3:forces:R:3 energy=18.772402258319616 pbc="F F F"
Al       0.00000000       0.00000000       0.00000000       0.00000000       0.00000000     -58.18192673
Al       0.00000000       0.00000000       1.35575758       0.00000000       0.00000000      58.18192673
2
Properties=species:S:1:pos:R:3:forces:R:3 energy=15.356239364042526 pbc="F F F"
Al       0.00000000       0.00000000       0.00000000       0.00000000       0.00000000     -56.97240067
Al       0.00000000       0.00000000       1.41454545       0.00000000       0.00000000      56.97240067
2
Properties=species:S:1:pos:R:3:forces:R:3 energy=12.14788076284204 pbc="F F F"
Al       0.00000000       0.00000000       0.00000000       0.00000000       0.00000000     -51.71069336
Al       0.00000000       0.00000000       1.47333333       0.00000000       0.00000000      51.71069336
2
Properties=species:S:1:pos:R:3:forces:R:3 energy=9.335460939578208 pbc="F F F"
Al       0.00000000       0.00000000       0.00000000       0.00000000       0.00000000     -43.74694824
Al       0.00000000       0.00000000       1.53212121       0.00000000       0.00000000      43.74694824
2
Properties=species:S:1:pos:R:3:forces:R:3 energy=7.025799376536561 pbc="F F F"
Al       0.00000000       0.00000000       0.00000000       0.00000000       0.00000000     -35.07607651
Al       0.00000000       0.00000000       1.59090909       0.00000000       0.00000000      35.07607651
2
Properties=species:S:1:pos:R:3:forces:R:3 energy=5.167440956114058 pbc="F F F"
Al       0.00000000       0.00000000       0.00000000       0.00000000       0.00000000     -28.08856964
Al       0.00000000       0.00000000       1.64969697       0.00000000       0.00000000      28.08856964
2
Properties=species:S:1:pos:R:3:forces:R:3 energy=3.6827455503446695 pbc="F F F"
Al       0.00000000       0.00000000       0.00000000       0.00000000       0.00000000     -22.74706268
Al       0.00000000       0.00000000       1.70848485       0.00000000       0.00000000      22.74706268
2
Properties=species:S:1:pos:R:3:forces:R:3 energy=2.4803811924581622 pbc="F F F"
Al       0.00000000       0.00000000       0.00000000       0.00000000       0.00000000     -18.43280602
Al       0.00000000       0.00000000       1.76727273       0.00000000       0.00000000      18.43280602
2
Properties=species:S:1:pos:R:3:forces:R:3 energy=1.474979279198659 pbc="F F F"
Al       0.00000000       0.00000000       0.00000000       0.00000000       0.00000000     -15.80688190
Al       0.00000000       0.00000000       1.82606061       0.00000000       0.00000000      15.80688190
2
Properties=species:S:1:pos:R:3:forces:R:3 energy=0.629842955064967 pbc="F F F"
Al       0.00000000       0.00000000       0.00000000       0.00000000       0.00000000     -13.13609695
Al       0.00000000       0.00000000       1.88484848       0.00000000       0.00000000      13.13609695
2
Properties=species:S:1:pos:R:3:forces:R:3 energy=-0.08435466566949423 pbc="F F F"
Al       0.00000000       0.00000000       0.00000000       0.00000000       0.00000000     -11.16221046
Al       0.00000000       0.00000000       1.94363636       0.00000000       0.00000000      11.16221046
2
Properties=species:S:1:pos:R:3:forces:R:3 energy=-0.6871004824772039 pbc="F F F"
Al       0.00000000       0.00000000       0.00000000       0.00000000       0.00000000      -9.40459633
Al       0.00000000       0.00000000       2.00242424       0.00000000       0.00000000       9.40459633
2
Properties=species:S:1:pos:R:3:forces:R:3 energy=-1.1919783155388377 pbc="F F F"
Al       0.00000000       0.00000000       0.00000000       0.00000000       0.00000000      -7.75744247
Al       0.00000000       0.00000000       2.06121212       0.00000000       0.00000000       7.75744247
2
Properties=species:S:1:pos:R:3:forces:R:3 energy=-1.598327205196683 pbc="F F F"
Al       0.00000000       0.00000000       0.00000000       0.00000000       0.00000000      -6.06054115
Al       0.00000000       0.00000000       2.12000000       0.00000000       0.00000000       6.06054115
2
Properties=species:S:1:pos:R:3:forces:R:3 energy=-1.9086651874352003 pbc="F F F"
Al       0.00000000       0.00000000       0.00000000       0.00000000       0.00000000      -4.57671690
Al       0.00000000       0.00000000       2.17878788       0.00000000       0.00000000       4.57671690
2
Properties=species:S:1:pos:R:3:forces:R:3 energy=-2.143481506455769 pbc="F F F"
Al       0.00000000       0.00000000       0.00000000       0.00000000       0.00000000      -3.44736910
Al       0.00000000       0.00000000       2.23757576       0.00000000       0.00000000       3.44736910
2
Properties=species:S:1:pos:R:3:forces:R:3 energy=-2.3191240027210154 pbc="F F F"
Al       0.00000000       0.00000000       0.00000000       0.00000000       0.00000000      -2.56726527
Al       0.00000000       0.00000000       2.29636364       0.00000000       0.00000000       2.56726527
2
Properties=species:S:1:pos:R:3:forces:R:3 energy=-2.4472242120687704 pbc="F F F"
Al       0.00000000       0.00000000       0.00000000       0.00000000       0.00000000      -1.79806674
Al       0.00000000       0.00000000       2.35515152       0.00000000       0.00000000       1.79806674
2
Properties=species:S:1:pos:R:3:forces:R:3 energy=-2.533027634039507 pbc="F F F"
Al       0.00000000       0.00000000       0.00000000       0.00000000       0.00000000      -1.14998651
Al       0.00000000       0.00000000       2.41393939       0.00000000       0.00000000       1.14998651
2
Properties=species:S:1:pos:R:3:forces:R:3 energy=-2.585370844491386 pbc="F F F"
Al       0.00000000       0.00000000       0.00000000       0.00000000       0.00000000      -0.65289915
Al       0.00000000       0.00000000       2.47272727       0.00000000       0.00000000       0.65289915
2
Properties=species:S:1:pos:R:3:forces:R:3 energy=-2.6119251163031043 pbc="F F F"
Al       0.00000000       0.00000000       0.00000000       0.00000000       0.00000000      -0.26263741
Al       0.00000000       0.00000000       2.53151515       0.00000000       0.00000000       0.26263741
2
Properties=species:S:1:pos:R:3:forces:R:3 energy=-2.617368639190059 pbc="F F F"
Al       0.00000000       0.00000000       0.00000000       0.00000000       0.00000000       0.06748386
Al       0.00000000       0.00000000       2.59030303       0.00000000       0.00000000      -0.06748386
2
Properties=species:S:1:pos:R:3:forces:R:3 energy=-2.605289424427573 pbc="F F F"
Al       0.00000000       0.00000000       0.00000000       0.00000000       0.00000000       0.33221143
Al       0.00000000       0.00000000       2.64909091       0.00000000       0.00000000      -0.33221143
2
Properties=species:S:1:pos:R:3:forces:R:3 energy=-2.5795182694975636 pbc="F F F"
Al       0.00000000       0.00000000       0.00000000       0.00000000       0.00000000       0.53565300
Al       0.00000000       0.00000000       2.70787879       0.00000000       0.00000000      -0.53565300
2
Properties=species:S:1:pos:R:3:forces:R:3 energy=-2.5432458084970864 pbc="F F F"
Al       0.00000000       0.00000000       0.00000000       0.00000000       0.00000000       0.69051969
Al       0.00000000       0.00000000       2.76666667       0.00000000       0.00000000      -0.69051969
2
Properties=species:S:1:pos:R:3:forces:R:3 energy=-2.4993131308538805 pbc="F F F"
Al       0.00000000       0.00000000       0.00000000       0.00000000       0.00000000       0.79535991
Al       0.00000000       0.00000000       2.82545455       0.00000000       0.00000000      -0.79535991
2
Properties=species:S:1:pos:R:3:forces:R:3 energy=-2.4507158625834666 pbc="F F F"
Al       0.00000000       0.00000000       0.00000000       0.00000000       0.00000000       0.85052043
Al       0.00000000       0.00000000       2.88424242       0.00000000       0.00000000      -0.85052043
2
Properties=species:S:1:pos:R:3:forces:R:3 energy=-2.400007385793431 pbc="F F F"
Al       0.00000000       0.00000000       0.00000000       0.00000000       0.00000000       0.87042177
Al       0.00000000       0.00000000       2.94303030       0.00000000       0.00000000      -0.87042177
2
Properties=species:S:1:pos:R:3:forces:R:3 energy=-2.3486412207665937 pbc="F F F"
Al       0.00000000       0.00000000       0.00000000       0.00000000       0.00000000       0.87641203
Al       0.00000000       0.00000000       3.00181818       0.00000000       0.00000000      -0.87641203
2
Properties=species:S:1:pos:R:3:forces:R:3 energy=-2.296963862767248 pbc="F F F"
Al       0.00000000       0.00000000       0.00000000       0.00000000       0.00000000       0.88163340
Al       0.00000000       0.00000000       3.06060606       0.00000000       0.00000000      -0.88163340
2
Properties=species:S:1:pos:R:3:forces:R:3 energy=-2.245093522685525 pbc="F F F"
Al       0.00000000       0.00000000       0.00000000       0.00000000       0.00000000       0.88117176
Al       0.00000000       0.00000000       3.11939394       0.00000000       0.00000000      -0.88117176
2
Properties=species:S:1:pos:R:3:forces:R:3 energy=-2.1936498095220682 pbc="F F F"
Al       0.00000000       0.00000000       0.00000000       0.00000000       0.00000000       0.86628109
Al       0.00000000       0.00000000       3.17818182       0.00000000       0.00000000      -0.86628109
2
Properties=species:S:1:pos:R:3:forces:R:3 energy=-2.143511832581114 pbc="F F F"
Al       0.00000000       0.00000000       0.00000000       0.00000000       0.00000000       0.83759362
Al       0.00000000       0.00000000       3.23696970       0.00000000       0.00000000      -0.83759362
2
Properties=species:S:1:pos:R:3:forces:R:3 energy=-2.0953209723515873 pbc="F F F"
Al       0.00000000       0.00000000       0.00000000       0.00000000       0.00000000       0.80116320
Al       0.00000000       0.00000000       3.29575758       0.00000000       0.00000000      -0.80116320
2
Properties=species:S:1:pos:R:3:forces:R:3 energy=-2.0493575287819823 pbc="F F F"
Al       0.00000000       0.00000000       0.00000000       0.00000000       0.00000000       0.76239133
Al       0.00000000       0.00000000       3.35454545       0.00000000       0.00000000      -0.76239133
2
Properties=species:S:1:pos:R:3:forces:R:3 energy=-2.005676011517923 pbc="F F F"
Al       0.00000000       0.00000000       0.00000000       0.00000000       0.00000000       0.72385877
Al       0.00000000       0.00000000       3.41333333       0.00000000       0.00000000      -0.72385877
2
Properties=species:S:1:pos:R:3:forces:R:3 energy=-1.9642338563055288 pbc="F F F"
Al       0.00000000       0.00000000       0.00000000       0.00000000       0.00000000       0.68623352
Al       0.00000000       0.00000000       3.47212121       0.00000000       0.00000000      -0.68623352
2
Properties=species:S:1:pos:R:3:forces:R:3 energy=-1.9249697450641043 pbc="F F F"
Al       0.00000000       0.00000000       0.00000000       0.00000000       0.00000000       0.64968824
Al       0.00000000       0.00000000       3.53090909       0.00000000       0.00000000      -0.64968824
2
Properties=species:S:1:pos:R:3:forces:R:3 energy=-1.8878273847726423 pbc="F F F"
Al       0.00000000       0.00000000       0.00000000       0.00000000       0.00000000       0.61402541
Al       0.00000000       0.00000000       3.58969697       0.00000000       0.00000000      -0.61402541
2
Properties=species:S:1:pos:R:3:forces:R:3 energy=-1.8527689009565287 pbc="F F F"
Al       0.00000000       0.00000000       0.00000000       0.00000000       0.00000000       0.57870525
Al       0.00000000       0.00000000       3.64848485       0.00000000       0.00000000      -0.57870525
2
Properties=species:S:1:pos:R:3:forces:R:3 energy=-1.8197854845125943 pbc="F F F"
Al       0.00000000       0.00000000       0.00000000       0.00000000       0.00000000       0.54347557
Al       0.00000000       0.00000000       3.70727273       0.00000000       0.00000000      -0.54347557
2
Properties=species:S:1:pos:R:3:forces:R:3 energy=-1.7888588389355233 pbc="F F F"
Al       0.00000000       0.00000000       0.00000000       0.00000000       0.00000000       0.50877172
Al       0.00000000       0.00000000       3.76606061       0.00000000       0.00000000      -0.50877172
2
Properties=species:S:1:pos:R:3:forces:R:3 energy=-1.7599381050729048 pbc="F F F"
Al       0.00000000       0.00000000       0.00000000       0.00000000       0.00000000       0.47542411
Al       0.00000000       0.00000000       3.82484848       0.00000000       0.00000000      -0.47542411
2
Properties=species:S:1:pos:R:3:forces:R:3 energy=-1.7329204992072373 pbc="F F F"
Al       0.00000000       0.00000000       0.00000000       0.00000000       0.00000000       0.44409093
Al       0.00000000       0.00000000       3.88363636       0.00000000       0.00000000      -0.44409093
2
Properties=species:S:1:pos:R:3:forces:R:3 energy=-1.7076819668504069 pbc="F F F"
Al       0.00000000       0.00000000       0.00000000       0.00000000       0.00000000       0.41494957
Al       0.00000000       0.00000000       3.94242424       0.00000000       0.00000000      -0.41494957
2
Properties=species:S:1:pos:R:3:forces:R:3 energy=-1.6840936898145262 pbc="F F F"
Al       0.00000000       0.00000000       0.00000000       0.00000000       0.00000000       0.38776946
Al       0.00000000       0.00000000       4.00121212       0.00000000       0.00000000      -0.38776946
2
Properties=species:S:1:pos:R:3:forces:R:3 energy=-1.6620573341477756 pbc="F F F"
Al       0.00000000       0.00000000       0.00000000       0.00000000       0.00000000       0.36220050
Al       0.00000000       0.00000000       4.06000000       0.00000000       0.00000000      -0.36220050
2
Properties=species:S:1:pos:R:3:forces:R:3 energy=-1.641480870823508 pbc="F F F"
Al       0.00000000       0.00000000       0.00000000       0.00000000       0.00000000       0.33802891
Al       0.00000000       0.00000000       4.11878788       0.00000000       0.00000000      -0.33802891
2
Properties=species:S:1:pos:R:3:forces:R:3 energy=-1.6222879762670632 pbc="F F F"
Al       0.00000000       0.00000000       0.00000000       0.00000000       0.00000000       0.31523004
Al       0.00000000       0.00000000       4.17757576       0.00000000       0.00000000      -0.31523004
2
Properties=species:S:1:pos:R:3:forces:R:3 energy=-1.604389349266364 pbc="F F F"
Al       0.00000000       0.00000000       0.00000000       0.00000000       0.00000000       0.29388088
Al       0.00000000       0.00000000       4.23636364       0.00000000       0.00000000      -0.29388088
2
Properties=species:S:1:pos:R:3:forces:R:3 energy=-1.5877036221147902 pbc="F F F"
Al       0.00000000       0.00000000       0.00000000       0.00000000       0.00000000       0.27404046
Al       0.00000000       0.00000000       4.29515152       0.00000000       0.00000000      -0.27404046
2
Properties=species:S:1:pos:R:3:forces:R:3 energy=-1.5721401564596187 pbc="F F F"
Al       0.00000000       0.00000000       0.00000000       0.00000000       0.00000000       0.25568849
Al       0.00000000       0.00000000       4.35393939       0.00000000       0.00000000      -0.25568849
2
Properties=species:S:1:pos:R:3:forces:R:3 energy=-1.5576139694697595 pbc="F F F"
Al       0.00000000       0.00000000       0.00000000       0.00000000       0.00000000       0.23872487
Al       0.00000000       0.00000000       4.41272727       0.00000000       0.00000000      -0.23872487
2
Properties=species:S:1:pos:R:3:forces:R:3 energy=-1.5440486233691044 pbc="F F F"
Al       0.00000000       0.00000000       0.00000000       0.00000000       0.00000000       0.22299114
Al       0.00000000       0.00000000       4.47151515       0.00000000       0.00000000      -0.22299114
2
Properties=species:S:1:pos:R:3:forces:R:3 energy=-1.531375103867637 pbc="F F F"
Al       0.00000000       0.00000000       0.00000000       0.00000000       0.00000000       0.20829611
Al       0.00000000       0.00000000       4.53030303       0.00000000       0.00000000      -0.20829611
2
Properties=species:S:1:pos:R:3:forces:R:3 energy=-1.5195412016813115 pbc="F F F"
Al       0.00000000       0.00000000       0.00000000       0.00000000       0.00000000       0.19444126
Al       0.00000000       0.00000000       4.58909091       0.00000000       0.00000000      -0.19444126
2
Properties=species:S:1:pos:R:3:forces:R:3 energy=-1.508500914408618 pbc="F F F"
Al       0.00000000       0.00000000       0.00000000       0.00000000       0.00000000       0.18126389
Al       0.00000000       0.00000000       4.64787879       0.00000000       0.00000000      -0.18126389
2
Properties=species:S:1:pos:R:3:forces:R:3 energy=-1.4982182390530956 pbc="F F F"
Al       0.00000000       0.00000000       0.00000000       0.00000000       0.00000000       0.16867441
Al       0.00000000       0.00000000       4.70666667       0.00000000       0.00000000      -0.16867441
2
Properties=species:S:1:pos:R:3:forces:R:3 energy=-1.488656516879098 pbc="F F F"
Al       0.00000000       0.00000000       0.00000000       0.00000000       0.00000000       0.15669695
Al       0.00000000       0.00000000       4.76545455       0.00000000       0.00000000      -0.15669695
2
Properties=species:S:1:pos:R:3:forces:R:3 energy=-1.479776560909205 pbc="F F F"
Al       0.00000000       0.00000000       0.00000000       0.00000000       0.00000000       0.14546831
Al       0.00000000       0.00000000       4.82424242       0.00000000       0.00000000      -0.14546831
2
Properties=species:S:1:pos:R:3:forces:R:3 energy=-1.4715337410482972 pbc="F F F"
Al       0.00000000       0.00000000       0.00000000       0.00000000       0.00000000       0.13520166
Al       0.00000000       0.00000000       4.88303030       0.00000000       0.00000000      -0.13520166
2
Properties=species:S:1:pos:R:3:forces:R:3 energy=-1.4638579125734006 pbc="F F F"
Al       0.00000000       0.00000000       0.00000000       0.00000000       0.00000000       0.12610744
Al       0.00000000       0.00000000       4.94181818       0.00000000       0.00000000      -0.12610744
2
Properties=species:S:1:pos:R:3:forces:R:3 energy=-1.456680158612324 pbc="F F F"
Al       0.00000000       0.00000000       0.00000000       0.00000000       0.00000000       0.11829986
Al       0.00000000       0.00000000       5.00060606       0.00000000       0.00000000      -0.11829986
2
Properties=species:S:1:pos:R:3:forces:R:3 energy=-1.449925260535524 pbc="F F F"
Al       0.00000000       0.00000000       0.00000000       0.00000000       0.00000000       0.11171290
Al       0.00000000       0.00000000       5.05939394       0.00000000       0.00000000      -0.11171290
2
Properties=species:S:1:pos:R:3:forces:R:3 energy=-1.4435287706430477 pbc="F F F"
Al       0.00000000       0.00000000       0.00000000       0.00000000       0.00000000       0.10606533
Al       0.00000000       0.00000000       5.11818182       0.00000000       0.00000000      -0.10606533
2
Properties=species:S:1:pos:R:3:forces:R:3 energy=-1.437446688291872 pbc="F F F"
Al       0.00000000       0.00000000       0.00000000       0.00000000       0.00000000       0.10088795
Al       0.00000000       0.00000000       5.17696970       0.00000000       0.00000000      -0.10088795
2
Properties=species:S:1:pos:R:3:forces:R:3 energy=-1.4316669261624535 pbc="F F F"
Al       0.00000000       0.00000000       0.00000000       0.00000000       0.00000000       0.09560664
Al       0.00000000       0.00000000       5.23575758       0.00000000       0.00000000      -0.09560664
2
Properties=species:S:1:pos:R:3:forces:R:3 energy=-1.4262189214457153 pbc="F F F"
Al       0.00000000       0.00000000       0.00000000       0.00000000       0.00000000       0.08966966
Al       0.00000000       0.00000000       5.29454545       0.00000000       0.00000000      -0.08966966
2
Properties=species:S:1:pos:R:3:forces:R:3 energy=-1.4211460299730239 pbc="F F F"
Al       0.00000000       0.00000000       0.00000000       0.00000000       0.00000000       0.08266829
Al       0.00000000       0.00000000       5.35333333       0.00000000       0.00000000      -0.08266829
2
Properties=species:S:1:pos:R:3:forces:R:3 energy=-1.4165217814451678 pbc="F F F"
Al       0.00000000       0.00000000       0.00000000       0.00000000       0.00000000       0.07443125
Al       0.00000000       0.00000000       5.41212121       0.00000000       0.00000000      -0.07443125
2
Properties=species:S:1:pos:R:3:forces:R:3 energy=-1.412415621600788 pbc="F F F"
Al       0.00000000       0.00000000       0.00000000       0.00000000       0.00000000       0.06507820
Al       0.00000000       0.00000000       5.47090909       0.00000000       0.00000000      -0.06507820
2
Properties=species:S:1:pos:R:3:forces:R:3 energy=-1.4088862840134937 pbc="F F F"
Al       0.00000000       0.00000000       0.00000000       0.00000000       0.00000000       0.05498593
Al       0.00000000       0.00000000       5.52969697       0.00000000       0.00000000      -0.05498593
2
Properties=species:S:1:pos:R:3:forces:R:3 energy=-1.4059551046340262 pbc="F F F"
Al       0.00000000       0.00000000       0.00000000       0.00000000       0.00000000       0.04473783
Al       0.00000000       0.00000000       5.58848485       0.00000000       0.00000000      -0.04473783
2
Properties=species:S:1:pos:R:3:forces:R:3 energy=-1.4036147204846146 pbc="F F F"
Al       0.00000000       0.00000000       0.00000000       0.00000000       0.00000000       0.03500969
Al       0.00000000       0.00000000       5.64727273       0.00000000       0.00000000      -0.03500969
2
Properties=species:S:1:pos:R:3:forces:R:3 energy=-1.4018156722851245 pbc="F F F"
Al       0.00000000       0.00000000       0.00000000       0.00000000       0.00000000       0.02644754
Al       0.00000000       0.00000000       5.70606061       0.00000000       0.00000000      -0.02644754
2
Properties=species:S:1:pos:R:3:forces:R:3 energy=-1.4004731506573163 pbc="F F F"
Al       0.00000000       0.00000000       0.00000000       0.00000000       0.00000000       0.01954311
Al       0.00000000       0.00000000       5.76484848       0.00000000       0.00000000      -0.01954311
2
Properties=species:S:1:pos:R:3:forces:R:3 energy=-1.3994804117136725 pbc="F F F"
Al       0.00000000       0.00000000       0.00000000       0.00000000       0.00000000       0.01456837
Al       0.00000000       0.00000000       5.82363636       0.00000000       0.00000000      -0.01456837
2
Properties=species:S:1:pos:R:3:forces:R:3 energy=-1.3987220809804968 pbc="F F F"
Al       0.00000000       0.00000000       0.00000000       0.00000000       0.00000000       0.01146946
Al       0.00000000       0.00000000       5.88242424       0.00000000       0.00000000      -0.01146946
2
Properties=species:S:1:pos:R:3:forces:R:3 energy=-1.3981009156754363 pbc="F F F"
Al       0.00000000       0.00000000       0.00000000       0.00000000       0.00000000       0.00988273
Al       0.00000000       0.00000000       5.94121212       0.00000000       0.00000000      -0.00988273
2
Properties=species:S:1:pos:R:3:forces:R:3 energy=-1.3975435584316038 pbc="F F F"
Al       0.00000000       0.00000000       0.00000000       0.00000000       0.00000000       0.00916749
Al       0.00000000       0.00000000       6.00000000       0.00000000       0.00000000      -0.00916749
