2
Properties=species:S:1:pos:R:3:forces:R:3 energy=4781.082827919906 pbc="F F F"
Be       0.00000000       0.00000000       0.00000000       0.00000000       0.00000000  -38834.18359375
Be       0.00000000       0.00000000       0.18000000       0.00000000       0.00000000   38834.18359375
2
Properties=species:S:1:pos:R:3:forces:R:3 energy=2751.9905427636554 pbc="F F F"
Be       0.00000000       0.00000000       0.00000000       0.00000000       0.00000000  -29282.56250000
Be       0.00000000       0.00000000       0.23878788       0.00000000       0.00000000   29282.56250000
2
Properties=species:S:1:pos:R:3:forces:R:3 energy=1375.197940227761 pbc="F F F"
Be       0.00000000       0.00000000       0.00000000       0.00000000       0.00000000  -17768.41796875
Be       0.00000000       0.00000000       0.29757576       0.00000000       0.00000000   17768.41796875
2
Properties=species:S:1:pos:R:3:forces:R:3 energy=602.9282258817957 pbc="F F F"
Be       0.00000000       0.00000000       0.00000000       0.00000000       0.00000000   -9309.18945312
Be       0.00000000       0.00000000       0.35636364       0.00000000       0.00000000    9309.18945312
2
Properties=species:S:1:pos:R:3:forces:R:3 energy=219.97459736709916 pbc="F F F"
Be       0.00000000       0.00000000       0.00000000       0.00000000       0.00000000   -4028.31640625
Be       0.00000000       0.00000000       0.41515152       0.00000000       0.00000000    4028.31640625
2
Properties=species:S:1:pos:R:3:forces:R:3 energy=67.0591005852768 pbc="F F F"
Be       0.00000000       0.00000000       0.00000000       0.00000000       0.00000000   -1576.75329590
Be       0.00000000       0.00000000       0.47393939       0.00000000       0.00000000    1576.75329590
2
Properties=species:S:1:pos:R:3:forces:R:3 energy=15.707170052521857 pbc="F F F"
Be       0.00000000       0.00000000       0.00000000       0.00000000       0.00000000    -388.36633301
Be       0.00000000       0.00000000       0.53272727       0.00000000       0.00000000     388.36633301
2
Properties=species:S:1:pos:R:3:forces:R:3 energy=5.4207236300594 pbc="F F F"
Be       0.00000000       0.00000000       0.00000000       0.00000000       0.00000000     -53.40028763
Be       0.00000000       0.00000000       0.59151515       0.00000000       0.00000000      53.40028763
2
Properties=species:S:1:pos:R:3:forces:R:3 energy=3.616759255945719 pbc="F F F"
Be       0.00000000       0.00000000       0.00000000       0.00000000       0.00000000     -20.73950768
Be       0.00000000       0.00000000       0.65030303       0.00000000       0.00000000      20.73950768
2
Properties=species:S:1:pos:R:3:forces:R:3 energy=2.955145224390236 pbc="F F F"
Be       0.00000000       0.00000000       0.00000000       0.00000000       0.00000000      -4.01456881
Be       0.00000000       0.00000000       0.70909091       0.00000000       0.00000000       4.01456881
2
Properties=species:S:1:pos:R:3:forces:R:3 energy=2.9051027011904096 pbc="F F F"
Be       0.00000000       0.00000000       0.00000000       0.00000000       0.00000000       2.90227532
Be       0.00000000       0.00000000       0.76787879       0.00000000       0.00000000      -2.90227532
2
Properties=species:S:1:pos:R:3:forces:R:3 energy=3.200338246181637 pbc="F F F"
Be       0.00000000       0.00000000       0.00000000       0.00000000       0.00000000       7.84250832
Be       0.00000000       0.00000000       0.82666667       0.00000000       0.00000000      -7.84250832
2
Properties=species:S:1:pos:R:3:forces:R:3 energy=3.5927192423744625 pbc="F F F"
Be       0.00000000       0.00000000       0.00000000       0.00000000       0.00000000       4.62017727
Be       0.00000000       0.00000000       0.88545455       0.00000000       0.00000000      -4.62017727
2
Properties=species:S:1:pos:R:3:forces:R:3 energy=3.6684408085472007 pbc="F F F"
Be       0.00000000       0.00000000       0.00000000       0.00000000       0.00000000      -2.41809058
Be       0.00000000       0.00000000       0.94424242       0.00000000       0.00000000       2.41809058
2
Properties=species:S:1:pos:R:3:forces:R:3 energy=3.3605646901511164 pbc="F F F"
Be       0.00000000       0.00000000       0.00000000       0.00000000       0.00000000      -6.48108864
Be       0.00000000       0.00000000       1.00303030       0.00000000       0.00000000       6.48108864
2
Properties=species:S:1:pos:R:3:forces:R:3 energy=2.951943246939279 pbc="F F F"
Be       0.00000000       0.00000000       0.00000000       0.00000000       0.00000000      -7.62217712
Be       0.00000000       0.00000000       1.06181818       0.00000000       0.00000000       7.62217712
2
Properties=species:S:1:pos:R:3:forces:R:3 energy=2.4688580606385835 pbc="F F F"
Be       0.00000000       0.00000000       0.00000000       0.00000000       0.00000000      -9.40540695
Be       0.00000000       0.00000000       1.12060606       0.00000000       0.00000000       9.40540695
2
Properties=species:S:1:pos:R:3:forces:R:3 energy=1.8751555945076634 pbc="F F F"
Be       0.00000000       0.00000000       0.00000000       0.00000000       0.00000000      -9.89364815
Be       0.00000000       0.00000000       1.17939394       0.00000000       0.00000000       9.89364815
2
Properties=species:S:1:pos:R:3:forces:R:3 energy=1.3554923053493884 pbc="F F F"
Be       0.00000000       0.00000000       0.00000000       0.00000000       0.00000000      -7.74477530
Be       0.00000000       0.00000000       1.23818182       0.00000000       0.00000000       7.74477530
2
Properties=species:S:1:pos:R:3:forces:R:3 energy=0.8887379956346916 pbc="F F F"
Be       0.00000000       0.00000000       0.00000000       0.00000000       0.00000000      -7.86115932
Be       0.00000000       0.00000000       1.29696970       0.00000000       0.00000000       7.86115932
2
Properties=species:S:1:pos:R:3:forces:R:3 energy=0.46299982378748306 pbc="F F F"
Be       0.00000000       0.00000000       0.00000000       0.00000000       0.00000000      -6.77196980
Be       0.00000000       0.00000000       1.35575758       0.00000000       0.00000000       6.77196980
2
Properties=species:S:1:pos:R:3:forces:R:3 energy=0.07933684664011806 pbc="F F F"
Be       0.00000000       0.00000000       0.00000000       0.00000000       0.00000000      -6.18665743
Be       0.00000000       0.00000000       1.41454545       0.00000000       0.00000000       6.18665743
2
Properties=species:S:1:pos:R:3:forces:R:3 energy=-0.2623562519589372 pbc="F F F"
Be       0.00000000       0.00000000       0.00000000       0.00000000       0.00000000      -5.48061037
Be       0.00000000       0.00000000       1.47333333       0.00000000       0.00000000       5.48061037
2
Properties=species:S:1:pos:R:3:forces:R:3 energy=-0.5602287894669787 pbc="F F F"
Be       0.00000000       0.00000000       0.00000000       0.00000000       0.00000000      -4.61681652
Be       0.00000000       0.00000000       1.53212121       0.00000000       0.00000000       4.61681652
2
Properties=species:S:1:pos:R:3:forces:R:3 energy=-0.8060643136149351 pbc="F F F"
Be       0.00000000       0.00000000       0.00000000       0.00000000       0.00000000      -3.74106002
Be       0.00000000       0.00000000       1.59090909       0.00000000       0.00000000       3.74106002
2
Properties=species:S:1:pos:R:3:forces:R:3 energy=-0.9984996119877827 pbc="F F F"
Be       0.00000000       0.00000000       0.00000000       0.00000000       0.00000000      -2.84741998
Be       0.00000000       0.00000000       1.64969697       0.00000000       0.00000000       2.84741998
2
Properties=species:S:1:pos:R:3:forces:R:3 energy=-1.1446251644289815 pbc="F F F"
Be       0.00000000       0.00000000       0.00000000       0.00000000       0.00000000      -2.16972232
Be       0.00000000       0.00000000       1.70848485       0.00000000       0.00000000       2.16972232
2
Properties=species:S:1:pos:R:3:forces:R:3 energy=-1.2614121882782563 pbc="F F F"
Be       0.00000000       0.00000000       0.00000000       0.00000000       0.00000000      -1.87300432
Be       0.00000000       0.00000000       1.76727273       0.00000000       0.00000000       1.87300432
2
Properties=species:S:1:pos:R:3:forces:R:3 energy=-1.3618647517755837 pbc="F F F"
Be       0.00000000       0.00000000       0.00000000       0.00000000       0.00000000      -1.43651378
Be       0.00000000       0.00000000       1.82606061       0.00000000       0.00000000       1.43651378
2
Properties=species:S:1:pos:R:3:forces:R:3 energy=-1.429293338332549 pbc="F F F"
Be       0.00000000       0.00000000       0.00000000       0.00000000       0.00000000      -0.92389548
Be       0.00000000       0.00000000       1.88484848       0.00000000       0.00000000       0.92389548
2
Properties=species:S:1:pos:R:3:forces:R:3 energy=-1.4756433418640045 pbc="F F F"
Be       0.00000000       0.00000000       0.00000000       0.00000000       0.00000000      -0.64435589
Be       0.00000000       0.00000000       1.94363636       0.00000000       0.00000000       0.64435589
2
Properties=species:S:1:pos:R:3:forces:R:3 energy=-1.5055360826152213 pbc="F F F"
Be       0.00000000       0.00000000       0.00000000       0.00000000       0.00000000      -0.39099044
Be       0.00000000       0.00000000       2.00242424       0.00000000       0.00000000       0.39099044
2
Properties=species:S:1:pos:R:3:forces:R:3 energy=-1.5206046887855678 pbc="F F F"
Be       0.00000000       0.00000000       0.00000000       0.00000000       0.00000000      -0.10230787
Be       0.00000000       0.00000000       2.06121212       0.00000000       0.00000000       0.10230787
2
Properties=species:S:1:pos:R:3:forces:R:3 energy=-1.518941598669723 pbc="F F F"
Be       0.00000000       0.00000000       0.00000000       0.00000000       0.00000000       0.14091572
Be       0.00000000       0.00000000       2.12000000       0.00000000       0.00000000      -0.14091572
2
Properties=species:S:1:pos:R:3:forces:R:3 energy=-1.50546410888034 pbc="F F F"
Be       0.00000000       0.00000000       0.00000000       0.00000000       0.00000000       0.29778010
Be       0.00000000       0.00000000       2.17878788       0.00000000       0.00000000      -0.29778010
2
Properties=species:S:1:pos:R:3:forces:R:3 energy=-1.4863703352648487 pbc="F F F"
Be       0.00000000       0.00000000       0.00000000       0.00000000       0.00000000       0.34204501
Be       0.00000000       0.00000000       2.23757576       0.00000000       0.00000000      -0.34204501
2
Properties=species:S:1:pos:R:3:forces:R:3 energy=-1.4651801334399923 pbc="F F F"
Be       0.00000000       0.00000000       0.00000000       0.00000000       0.00000000       0.38345546
Be       0.00000000       0.00000000       2.29636364       0.00000000       0.00000000      -0.38345546
2
Properties=species:S:1:pos:R:3:forces:R:3 energy=-1.4410136360304846 pbc="F F F"
Be       0.00000000       0.00000000       0.00000000       0.00000000       0.00000000       0.43673080
Be       0.00000000       0.00000000       2.35515152       0.00000000       0.00000000      -0.43673080
2
Properties=species:S:1:pos:R:3:forces:R:3 energy=-1.4142151318124516 pbc="F F F"
Be       0.00000000       0.00000000       0.00000000       0.00000000       0.00000000       0.47288501
Be       0.00000000       0.00000000       2.41393939       0.00000000       0.00000000      -0.47288501
2
Properties=species:S:1:pos:R:3:forces:R:3 energy=-1.3856812839492931 pbc="F F F"
Be       0.00000000       0.00000000       0.00000000       0.00000000       0.00000000       0.49470139
Be       0.00000000       0.00000000       2.47272727       0.00000000       0.00000000      -0.49470139
2
Properties=species:S:1:pos:R:3:forces:R:3 energy=-1.3561840335555921 pbc="F F F"
Be       0.00000000       0.00000000       0.00000000       0.00000000       0.00000000       0.51081723
Be       0.00000000       0.00000000       2.53151515       0.00000000       0.00000000      -0.51081723
2
Properties=species:S:1:pos:R:3:forces:R:3 energy=-1.3252789458289804 pbc="F F F"
Be       0.00000000       0.00000000       0.00000000       0.00000000       0.00000000       0.54278588
Be       0.00000000       0.00000000       2.59030303       0.00000000       0.00000000      -0.54278588
2
Properties=species:S:1:pos:R:3:forces:R:3 energy=-1.2922791552062622 pbc="F F F"
Be       0.00000000       0.00000000       0.00000000       0.00000000       0.00000000       0.57915771
Be       0.00000000       0.00000000       2.64909091       0.00000000       0.00000000      -0.57915771
2
Properties=species:S:1:pos:R:3:forces:R:3 energy=-1.2574145953266258 pbc="F F F"
Be       0.00000000       0.00000000       0.00000000       0.00000000       0.00000000       0.60431647
Be       0.00000000       0.00000000       2.70787879       0.00000000       0.00000000      -0.60431647
2
Properties=species:S:1:pos:R:3:forces:R:3 energy=-1.22152658665692 pbc="F F F"
Be       0.00000000       0.00000000       0.00000000       0.00000000       0.00000000       0.61438298
Be       0.00000000       0.00000000       2.76666667       0.00000000       0.00000000      -0.61438298
2
Properties=species:S:1:pos:R:3:forces:R:3 energy=-1.1853924092188266 pbc="F F F"
Be       0.00000000       0.00000000       0.00000000       0.00000000       0.00000000       0.61321610
Be       0.00000000       0.00000000       2.82545455       0.00000000       0.00000000      -0.61321610
2
Properties=species:S:1:pos:R:3:forces:R:3 energy=-1.149632080180039 pbc="F F F"
Be       0.00000000       0.00000000       0.00000000       0.00000000       0.00000000       0.60154295
Be       0.00000000       0.00000000       2.88424242       0.00000000       0.00000000      -0.60154295
2
Properties=species:S:1:pos:R:3:forces:R:3 energy=-1.11488299241696 pbc="F F F"
Be       0.00000000       0.00000000       0.00000000       0.00000000       0.00000000       0.57903546
Be       0.00000000       0.00000000       2.94303030       0.00000000       0.00000000      -0.57903546
2
Properties=species:S:1:pos:R:3:forces:R:3 energy=-1.081682679649921 pbc="F F F"
Be       0.00000000       0.00000000       0.00000000       0.00000000       0.00000000       0.54991913
Be       0.00000000       0.00000000       3.00181818       0.00000000       0.00000000      -0.54991913
2
Properties=species:S:1:pos:R:3:forces:R:3 energy=-1.0502398344573853 pbc="F F F"
Be       0.00000000       0.00000000       0.00000000       0.00000000       0.00000000       0.51987106
Be       0.00000000       0.00000000       3.06060606       0.00000000       0.00000000      -0.51987106
2
Properties=species:S:1:pos:R:3:forces:R:3 energy=-1.0205713147100253 pbc="F F F"
Be       0.00000000       0.00000000       0.00000000       0.00000000       0.00000000       0.48905104
Be       0.00000000       0.00000000       3.11939394       0.00000000       0.00000000      -0.48905104
2
Properties=species:S:1:pos:R:3:forces:R:3 energy=-0.9928088039416108 pbc="F F F"
Be       0.00000000       0.00000000       0.00000000       0.00000000       0.00000000       0.45476913
Be       0.00000000       0.00000000       3.17818182       0.00000000       0.00000000      -0.45476913
2
Properties=species:S:1:pos:R:3:forces:R:3 energy=-0.9671706122969969 pbc="F F F"
Be       0.00000000       0.00000000       0.00000000       0.00000000       0.00000000       0.41711700
Be       0.00000000       0.00000000       3.23696970       0.00000000       0.00000000      -0.41711700
2
Properties=species:S:1:pos:R:3:forces:R:3 energy=-0.9437741444968839 pbc="F F F"
Be       0.00000000       0.00000000       0.00000000       0.00000000       0.00000000       0.37906384
Be       0.00000000       0.00000000       3.29575758       0.00000000       0.00000000      -0.37906384
2
Properties=species:S:1:pos:R:3:forces:R:3 energy=-0.922543757568823 pbc="F F F"
Be       0.00000000       0.00000000       0.00000000       0.00000000       0.00000000       0.34386218
Be       0.00000000       0.00000000       3.35454545       0.00000000       0.00000000      -0.34386218
2
Properties=species:S:1:pos:R:3:forces:R:3 energy=-0.903259027442312 pbc="F F F"
Be       0.00000000       0.00000000       0.00000000       0.00000000       0.00000000       0.31298593
Be       0.00000000       0.00000000       3.41333333       0.00000000       0.00000000      -0.31298593
2
Properties=species:S:1:pos:R:3:forces:R:3 energy=-0.8856619216039576 pbc="F F F"
Be       0.00000000       0.00000000       0.00000000       0.00000000       0.00000000       0.28629544
Be       0.00000000       0.00000000       3.47212121       0.00000000       0.00000000      -0.28629544
2
Properties=species:S:1:pos:R:3:forces:R:3 energy=-0.8695283690207158 pbc="F F F"
Be       0.00000000       0.00000000       0.00000000       0.00000000       0.00000000       0.26318973
Be       0.00000000       0.00000000       3.53090909       0.00000000       0.00000000      -0.26318973
2
Properties=species:S:1:pos:R:3:forces:R:3 energy=-0.8546595883720246 pbc="F F F"
Be       0.00000000       0.00000000       0.00000000       0.00000000       0.00000000       0.24298513
Be       0.00000000       0.00000000       3.58969697       0.00000000       0.00000000      -0.24298513
2
Properties=species:S:1:pos:R:3:forces:R:3 energy=-0.8409182706530282 pbc="F F F"
Be       0.00000000       0.00000000       0.00000000       0.00000000       0.00000000       0.22484578
Be       0.00000000       0.00000000       3.64848485       0.00000000       0.00000000      -0.22484578
2
Properties=species:S:1:pos:R:3:forces:R:3 energy=-0.8281996078133598 pbc="F F F"
Be       0.00000000       0.00000000       0.00000000       0.00000000       0.00000000       0.20793873
Be       0.00000000       0.00000000       3.70727273       0.00000000       0.00000000      -0.20793873
2
Properties=species:S:1:pos:R:3:forces:R:3 energy=-0.8164559362339061 pbc="F F F"
Be       0.00000000       0.00000000       0.00000000       0.00000000       0.00000000       0.19170907
Be       0.00000000       0.00000000       3.76606061       0.00000000       0.00000000      -0.19170907
2
Properties=species:S:1:pos:R:3:forces:R:3 energy=-0.805650643577404 pbc="F F F"
Be       0.00000000       0.00000000       0.00000000       0.00000000       0.00000000       0.17599024
Be       0.00000000       0.00000000       3.82484848       0.00000000       0.00000000      -0.17599024
2
Properties=species:S:1:pos:R:3:forces:R:3 energy=-0.7957511794538332 pbc="F F F"
Be       0.00000000       0.00000000       0.00000000       0.00000000       0.00000000       0.16091259
Be       0.00000000       0.00000000       3.88363636       0.00000000       0.00000000      -0.16091259
2
Properties=species:S:1:pos:R:3:forces:R:3 energy=-0.7867127732649508 pbc="F F F"
Be       0.00000000       0.00000000       0.00000000       0.00000000       0.00000000       0.14673534
Be       0.00000000       0.00000000       3.94242424       0.00000000       0.00000000      -0.14673534
2
Properties=species:S:1:pos:R:3:forces:R:3 energy=-0.778476168891755 pbc="F F F"
Be       0.00000000       0.00000000       0.00000000       0.00000000       0.00000000       0.13369642
Be       0.00000000       0.00000000       4.00121212       0.00000000       0.00000000      -0.13369642
2
Properties=species:S:1:pos:R:3:forces:R:3 energy=-0.7709685593618685 pbc="F F F"
Be       0.00000000       0.00000000       0.00000000       0.00000000       0.00000000       0.12193443
Be       0.00000000       0.00000000       4.06000000       0.00000000       0.00000000      -0.12193443
2
Properties=species:S:1:pos:R:3:forces:R:3 energy=-0.764113972728889 pbc="F F F"
Be       0.00000000       0.00000000       0.00000000       0.00000000       0.00000000       0.11147895
Be       0.00000000       0.00000000       4.11878788       0.00000000       0.00000000      -0.11147895
2
Properties=species:S:1:pos:R:3:forces:R:3 energy=-0.7578351509106219 pbc="F F F"
Be       0.00000000       0.00000000       0.00000000       0.00000000       0.00000000       0.10227917
Be       0.00000000       0.00000000       4.17757576       0.00000000       0.00000000      -0.10227917
2
Properties=species:S:1:pos:R:3:forces:R:3 energy=-0.7520649906130553 pbc="F F F"
Be       0.00000000       0.00000000       0.00000000       0.00000000       0.00000000       0.09423920
Be       0.00000000       0.00000000       4.23636364       0.00000000       0.00000000      -0.09423920
2
Properties=species:S:1:pos:R:3:forces:R:3 energy=-0.746735140420251 pbc="F F F"
Be       0.00000000       0.00000000       0.00000000       0.00000000       0.00000000       0.08723645
Be       0.00000000       0.00000000       4.29515152       0.00000000       0.00000000      -0.08723645
2
Properties=species:S:1:pos:R:3:forces:R:3 energy=-0.7417924540122065 pbc="F F F"
Be       0.00000000       0.00000000       0.00000000       0.00000000       0.00000000       0.08112720
Be       0.00000000       0.00000000       4.35393939       0.00000000       0.00000000      -0.08112720
2
Properties=species:S:1:pos:R:3:forces:R:3 energy=-0.7371836109985512 pbc="F F F"
Be       0.00000000       0.00000000       0.00000000       0.00000000       0.00000000       0.07574993
Be       0.00000000       0.00000000       4.41272727       0.00000000       0.00000000      -0.07574993
2
Properties=species:S:1:pos:R:3:forces:R:3 energy=-0.7328734806528635 pbc="F F F"
Be       0.00000000       0.00000000       0.00000000       0.00000000       0.00000000       0.07094540
Be       0.00000000       0.00000000       4.47151515       0.00000000       0.00000000      -0.07094540
2
Properties=species:S:1:pos:R:3:forces:R:3 energy=-0.7288338362119808 pbc="F F F"
Be       0.00000000       0.00000000       0.00000000       0.00000000       0.00000000       0.06657919
Be       0.00000000       0.00000000       4.53030303       0.00000000       0.00000000      -0.06657919
2
Properties=species:S:1:pos:R:3:forces:R:3 energy=-0.7250386229343728 pbc="F F F"
Be       0.00000000       0.00000000       0.00000000       0.00000000       0.00000000       0.06256141
Be       0.00000000       0.00000000       4.58909091       0.00000000       0.00000000      -0.06256141
2
Properties=species:S:1:pos:R:3:forces:R:3 energy=-0.7214707985471077 pbc="F F F"
Be       0.00000000       0.00000000       0.00000000       0.00000000       0.00000000       0.05884815
Be       0.00000000       0.00000000       4.64787879       0.00000000       0.00000000      -0.05884815
2
Properties=species:S:1:pos:R:3:forces:R:3 energy=-0.7181138753059795 pbc="F F F"
Be       0.00000000       0.00000000       0.00000000       0.00000000       0.00000000       0.05542997
Be       0.00000000       0.00000000       4.70666667       0.00000000       0.00000000      -0.05542997
2
Properties=species:S:1:pos:R:3:forces:R:3 energy=-0.7149491302485569 pbc="F F F"
Be       0.00000000       0.00000000       0.00000000       0.00000000       0.00000000       0.05231328
Be       0.00000000       0.00000000       4.76545455       0.00000000       0.00000000      -0.05231328
2
Properties=species:S:1:pos:R:3:forces:R:3 energy=-0.7119576012418367 pbc="F F F"
Be       0.00000000       0.00000000       0.00000000       0.00000000       0.00000000       0.04950198
Be       0.00000000       0.00000000       4.82424242       0.00000000       0.00000000      -0.04950198
2
Properties=species:S:1:pos:R:3:forces:R:3 energy=-0.7091230652146121 pbc="F F F"
Be       0.00000000       0.00000000       0.00000000       0.00000000       0.00000000       0.04698551
Be       0.00000000       0.00000000       4.88303030       0.00000000       0.00000000      -0.04698551
2
Properties=species:S:1:pos:R:3:forces:R:3 energy=-0.7064272745376239 pbc="F F F"
Be       0.00000000       0.00000000       0.00000000       0.00000000       0.00000000       0.04473411
Be       0.00000000       0.00000000       4.94181818       0.00000000       0.00000000      -0.04473411
2
Properties=species:S:1:pos:R:3:forces:R:3 energy=-0.7038586224557843 pbc="F F F"
Be       0.00000000       0.00000000       0.00000000       0.00000000       0.00000000       0.04269368
Be       0.00000000       0.00000000       5.00060606       0.00000000       0.00000000      -0.04269368
2
Properties=species:S:1:pos:R:3:forces:R:3 energy=-0.7014045928891991 pbc="F F F"
Be       0.00000000       0.00000000       0.00000000       0.00000000       0.00000000       0.04078387
Be       0.00000000       0.00000000       5.05939394       0.00000000       0.00000000      -0.04078387
2
Properties=species:S:1:pos:R:3:forces:R:3 energy=-0.6990631760145652 pbc="F F F"
Be       0.00000000       0.00000000       0.00000000       0.00000000       0.00000000       0.03890158
Be       0.00000000       0.00000000       5.11818182       0.00000000       0.00000000      -0.03890158
2
Properties=species:S:1:pos:R:3:forces:R:3 energy=-0.6968314930735059 pbc="F F F"
Be       0.00000000       0.00000000       0.00000000       0.00000000       0.00000000       0.03692785
Be       0.00000000       0.00000000       5.17696970       0.00000000       0.00000000      -0.03692785
2
Properties=species:S:1:pos:R:3:forces:R:3 energy=-0.6947258203653924 pbc="F F F"
Be       0.00000000       0.00000000       0.00000000       0.00000000       0.00000000       0.03474408
Be       0.00000000       0.00000000       5.23575758       0.00000000       0.00000000      -0.03474408
2
Properties=species:S:1:pos:R:3:forces:R:3 energy=-0.6927549267562177 pbc="F F F"
Be       0.00000000       0.00000000       0.00000000       0.00000000       0.00000000       0.03225632
Be       0.00000000       0.00000000       5.29454545       0.00000000       0.00000000      -0.03225632
2
Properties=species:S:1:pos:R:3:forces:R:3 energy=-0.6909391542925243 pbc="F F F"
Be       0.00000000       0.00000000       0.00000000       0.00000000       0.00000000       0.02941597
Be       0.00000000       0.00000000       5.35333333       0.00000000       0.00000000      -0.02941597
2
Properties=species:S:1:pos:R:3:forces:R:3 energy=-0.6893018066221568 pbc="F F F"
Be       0.00000000       0.00000000       0.00000000       0.00000000       0.00000000       0.02623875
Be       0.00000000       0.00000000       5.41212121       0.00000000       0.00000000      -0.02623875
2
Properties=species:S:1:pos:R:3:forces:R:3 energy=-0.6878587037182474 pbc="F F F"
Be       0.00000000       0.00000000       0.00000000       0.00000000       0.00000000       0.02280781
Be       0.00000000       0.00000000       5.47090909       0.00000000       0.00000000      -0.02280781
2
Properties=species:S:1:pos:R:3:forces:R:3 energy=-0.6866229288679987 pbc="F F F"
Be       0.00000000       0.00000000       0.00000000       0.00000000       0.00000000       0.01926376
Be       0.00000000       0.00000000       5.52969697       0.00000000       0.00000000      -0.01926376
2
Properties=species:S:1:pos:R:3:forces:R:3 energy=-0.6855933829969751 pbc="F F F"
Be       0.00000000       0.00000000       0.00000000       0.00000000       0.00000000       0.01578670
Be       0.00000000       0.00000000       5.58848485       0.00000000       0.00000000      -0.01578670
2
Properties=species:S:1:pos:R:3:forces:R:3 energy=-0.6847605257219348 pbc="F F F"
Be       0.00000000       0.00000000       0.00000000       0.00000000       0.00000000       0.01256826
Be       0.00000000       0.00000000       5.64727273       0.00000000       0.00000000      -0.01256826
2
Properties=species:S:1:pos:R:3:forces:R:3 energy=-0.6841072929911685 pbc="F F F"
Be       0.00000000       0.00000000       0.00000000       0.00000000       0.00000000       0.00977936
Be       0.00000000       0.00000000       5.70606061       0.00000000       0.00000000      -0.00977936
2
Properties=species:S:1:pos:R:3:forces:R:3 energy=-0.6836005254990077 pbc="F F F"
Be       0.00000000       0.00000000       0.00000000       0.00000000       0.00000000       0.00754238
Be       0.00000000       0.00000000       5.76484848       0.00000000       0.00000000      -0.00754238
2
Properties=species:S:1:pos:R:3:forces:R:3 energy=-0.6832081470988308 pbc="F F F"
Be       0.00000000       0.00000000       0.00000000       0.00000000       0.00000000       0.00591515
Be       0.00000000       0.00000000       5.82363636       0.00000000       0.00000000      -0.00591515
2
Properties=species:S:1:pos:R:3:forces:R:3 energy=-0.6828943552497926 pbc="F F F"
Be       0.00000000       0.00000000       0.00000000       0.00000000       0.00000000       0.00486584
Be       0.00000000       0.00000000       5.88242424       0.00000000       0.00000000      -0.00486584
2
Properties=species:S:1:pos:R:3:forces:R:3 energy=-0.682627269418289 pbc="F F F"
Be       0.00000000       0.00000000       0.00000000       0.00000000       0.00000000       0.00427797
Be       0.00000000       0.00000000       5.94121212       0.00000000       0.00000000      -0.00427797
2
Properties=species:S:1:pos:R:3:forces:R:3 energy=-0.6823865513649994 pbc="F F F"
Be       0.00000000       0.00000000       0.00000000       0.00000000       0.00000000       0.00395838
Be       0.00000000       0.00000000       6.00000000       0.00000000       0.00000000      -0.00395838
