2
Properties=species:S:1:pos:R:3:forces:R:3 energy=-1822851.0245239676 pbc="F F F"
Ce       0.00000000       0.00000000       0.00000000       0.00000000       0.00000000 14689649.00000000
Ce       0.00000000       0.00000000       0.18000000       0.00000000       0.00000000 -14689649.00000000
2
Properties=species:S:1:pos:R:3:forces:R:3 energy=-1013727.7120239676 pbc="F F F"
Ce       0.00000000       0.00000000       0.00000000       0.00000000       0.00000000 12159401.00000000
Ce       0.00000000       0.00000000       0.23878788       0.00000000       0.00000000 -12159401.00000000
2
Properties=species:S:1:pos:R:3:forces:R:3 energy=-434101.0245239676 pbc="F F F"
Ce       0.00000000       0.00000000       0.00000000       0.00000000       0.00000000 7469302.00000000
Ce       0.00000000       0.00000000       0.29757576       0.00000000       0.00000000 -7469302.00000000
2
Properties=species:S:1:pos:R:3:forces:R:3 energy=-130141.08702396759 pbc="F F F"
Ce       0.00000000       0.00000000       0.00000000       0.00000000       0.00000000 3085016.75000000
Ce       0.00000000       0.00000000       0.35636364       0.00000000       0.00000000 -3085016.75000000
2
Properties=species:S:1:pos:R:3:forces:R:3 energy=-20200.31944584259 pbc="F F F"
Ce       0.00000000       0.00000000       0.00000000       0.00000000       0.00000000  837505.68750000
Ce       0.00000000       0.00000000       0.41515152       0.00000000       0.00000000 -837505.68750000
2
Properties=species:S:1:pos:R:3:forces:R:3 energy=-535.5492432042885 pbc="F F F"
Ce       0.00000000       0.00000000       0.00000000       0.00000000       0.00000000   58128.03125000
Ce       0.00000000       0.00000000       0.47393939       0.00000000       0.00000000  -58128.03125000
2
Properties=species:S:1:pos:R:3:forces:R:3 energy=21.571596873095153 pbc="F F F"
Ce       0.00000000       0.00000000       0.00000000       0.00000000       0.00000000    -770.13574219
Ce       0.00000000       0.00000000       0.53272727       0.00000000       0.00000000     770.13574219
2
Properties=species:S:1:pos:R:3:forces:R:3 energy=332.6870238934749 pbc="F F F"
Ce       0.00000000       0.00000000       0.00000000       0.00000000       0.00000000   -5015.00878906
Ce       0.00000000       0.00000000       0.59151515       0.00000000       0.00000000    5015.00878906
2
Properties=species:S:1:pos:R:3:forces:R:3 energy=48.541020176666 pbc="F F F"
Ce       0.00000000       0.00000000       0.00000000       0.00000000       0.00000000   -2601.61791992
Ce       0.00000000       0.00000000       0.65030303       0.00000000       0.00000000    2601.61791992
2
Properties=species:S:1:pos:R:3:forces:R:3 energy=-13.975052082333194 pbc="F F F"
Ce       0.00000000       0.00000000       0.00000000       0.00000000       0.00000000    -230.30889893
Ce       0.00000000       0.00000000       0.70909091       0.00000000       0.00000000     230.30889893
2
Properties=species:S:1:pos:R:3:forces:R:3 energy=-17.03878707314992 pbc="F F F"
Ce       0.00000000       0.00000000       0.00000000       0.00000000       0.00000000      25.26327324
Ce       0.00000000       0.00000000       0.76787879       0.00000000       0.00000000     -25.26327324
2
Properties=species:S:1:pos:R:3:forces:R:3 energy=-15.077816169206267 pbc="F F F"
Ce       0.00000000       0.00000000       0.00000000       0.00000000       0.00000000      17.25913429
Ce       0.00000000       0.00000000       0.82666667       0.00000000       0.00000000     -17.25913429
2
Properties=species:S:1:pos:R:3:forces:R:3 energy=-14.581881641635418 pbc="F F F"
Ce       0.00000000       0.00000000       0.00000000       0.00000000       0.00000000      28.48751640
Ce       0.00000000       0.00000000       0.88545455       0.00000000       0.00000000     -28.48751640
2
Properties=species:S:1:pos:R:3:forces:R:3 energy=-12.147500105964912 pbc="F F F"
Ce       0.00000000       0.00000000       0.00000000       0.00000000       0.00000000      46.41532898
Ce       0.00000000       0.00000000       0.94424242       0.00000000       0.00000000     -46.41532898
2
Properties=species:S:1:pos:R:3:forces:R:3 energy=-8.835175509179221 pbc="F F F"
Ce       0.00000000       0.00000000       0.00000000       0.00000000       0.00000000      68.85806274
Ce       0.00000000       0.00000000       1.00303030       0.00000000       0.00000000     -68.85806274
2
Properties=species:S:1:pos:R:3:forces:R:3 energy=-4.4785832310480975 pbc="F F F"
Ce       0.00000000       0.00000000       0.00000000       0.00000000       0.00000000      68.34229279
Ce       0.00000000       0.00000000       1.06181818       0.00000000       0.00000000     -68.34229279
2
Properties=species:S:1:pos:R:3:forces:R:3 energy=-0.7868812121293035 pbc="F F F"
Ce       0.00000000       0.00000000       0.00000000       0.00000000       0.00000000      65.47058105
Ce       0.00000000       0.00000000       1.12060606       0.00000000       0.00000000     -65.47058105
2
Properties=species:S:1:pos:R:3:forces:R:3 energy=2.5058054213354364 pbc="F F F"
Ce       0.00000000       0.00000000       0.00000000       0.00000000       0.00000000      34.49971008
Ce       0.00000000       0.00000000       1.17939394       0.00000000       0.00000000     -34.49971008
2
Properties=species:S:1:pos:R:3:forces:R:3 energy=6.940545711195218 pbc="F F F"
Ce       0.00000000       0.00000000       0.00000000       0.00000000       0.00000000      90.77240753
Ce       0.00000000       0.00000000       1.23818182       0.00000000       0.00000000     -90.77240753
2
Properties=species:S:1:pos:R:3:forces:R:3 energy=10.045570332483855 pbc="F F F"
Ce       0.00000000       0.00000000       0.00000000       0.00000000       0.00000000      20.75391388
Ce       0.00000000       0.00000000       1.29696970       0.00000000       0.00000000     -20.75391388
2
Properties=species:S:1:pos:R:3:forces:R:3 energy=10.51716264149456 pbc="F F F"
Ce       0.00000000       0.00000000       0.00000000       0.00000000       0.00000000      -0.48360273
Ce       0.00000000       0.00000000       1.35575758       0.00000000       0.00000000       0.48360273
2
Properties=species:S:1:pos:R:3:forces:R:3 energy=9.963841252946398 pbc="F F F"
Ce       0.00000000       0.00000000       0.00000000       0.00000000       0.00000000     -18.48963547
Ce       0.00000000       0.00000000       1.41454545       0.00000000       0.00000000      18.48963547
2
Properties=species:S:1:pos:R:3:forces:R:3 energy=8.71031130816376 pbc="F F F"
Ce       0.00000000       0.00000000       0.00000000       0.00000000       0.00000000     -19.75681305
Ce       0.00000000       0.00000000       1.47333333       0.00000000       0.00000000      19.75681305
2
Properties=species:S:1:pos:R:3:forces:R:3 energy=7.853702651098744 pbc="F F F"
Ce       0.00000000       0.00000000       0.00000000       0.00000000       0.00000000     -10.74577618
Ce       0.00000000       0.00000000       1.53212121       0.00000000       0.00000000      10.74577618
2
Properties=species:S:1:pos:R:3:forces:R:3 energy=7.293456069306965 pbc="F F F"
Ce       0.00000000       0.00000000       0.00000000       0.00000000       0.00000000      -9.52084541
Ce       0.00000000       0.00000000       1.59090909       0.00000000       0.00000000       9.52084541
2
Properties=species:S:1:pos:R:3:forces:R:3 energy=6.659704268053631 pbc="F F F"
Ce       0.00000000       0.00000000       0.00000000       0.00000000       0.00000000     -12.11256218
Ce       0.00000000       0.00000000       1.64969697       0.00000000       0.00000000      12.11256218
2
Properties=species:S:1:pos:R:3:forces:R:3 energy=5.722680430146017 pbc="F F F"
Ce       0.00000000       0.00000000       0.00000000       0.00000000       0.00000000     -20.74643326
Ce       0.00000000       0.00000000       1.70848485       0.00000000       0.00000000      20.74643326
2
Properties=species:S:1:pos:R:3:forces:R:3 energy=4.320948507913638 pbc="F F F"
Ce       0.00000000       0.00000000       0.00000000       0.00000000       0.00000000     -25.88884544
Ce       0.00000000       0.00000000       1.76727273       0.00000000       0.00000000      25.88884544
2
Properties=species:S:1:pos:R:3:forces:R:3 energy=2.7179725181211167 pbc="F F F"
Ce       0.00000000       0.00000000       0.00000000       0.00000000       0.00000000     -28.47219086
Ce       0.00000000       0.00000000       1.82606061       0.00000000       0.00000000      28.47219086
2
Properties=species:S:1:pos:R:3:forces:R:3 energy=0.9940232691620545 pbc="F F F"
Ce       0.00000000       0.00000000       0.00000000       0.00000000       0.00000000     -29.81137657
Ce       0.00000000       0.00000000       1.88484848       0.00000000       0.00000000      29.81137657
2
Properties=species:S:1:pos:R:3:forces:R:3 energy=-0.7405972184267579 pbc="F F F"
Ce       0.00000000       0.00000000       0.00000000       0.00000000       0.00000000     -28.61336708
Ce       0.00000000       0.00000000       1.94363636       0.00000000       0.00000000      28.61336708
2
Properties=species:S:1:pos:R:3:forces:R:3 energy=-2.3153843144493753 pbc="F F F"
Ce       0.00000000       0.00000000       0.00000000       0.00000000       0.00000000     -24.70235062
Ce       0.00000000       0.00000000       2.00242424       0.00000000       0.00000000      24.70235062
2
Properties=species:S:1:pos:R:3:forces:R:3 energy=-3.6445244379622217 pbc="F F F"
Ce       0.00000000       0.00000000       0.00000000       0.00000000       0.00000000     -20.51499557
Ce       0.00000000       0.00000000       2.06121212       0.00000000       0.00000000      20.51499557
2
Properties=species:S:1:pos:R:3:forces:R:3 energy=-4.705993366194034 pbc="F F F"
Ce       0.00000000       0.00000000       0.00000000       0.00000000       0.00000000     -15.46958923
Ce       0.00000000       0.00000000       2.12000000       0.00000000       0.00000000      15.46958923
2
Properties=species:S:1:pos:R:3:forces:R:3 energy=-5.4796112745819245 pbc="F F F"
Ce       0.00000000       0.00000000       0.00000000       0.00000000       0.00000000     -11.12001514
Ce       0.00000000       0.00000000       2.17878788       0.00000000       0.00000000      11.12001514
2
Properties=species:S:1:pos:R:3:forces:R:3 energy=-6.031209261981902 pbc="F F F"
Ce       0.00000000       0.00000000       0.00000000       0.00000000       0.00000000      -7.71049404
Ce       0.00000000       0.00000000       2.23757576       0.00000000       0.00000000       7.71049404
2
Properties=species:S:1:pos:R:3:forces:R:3 energy=-6.400303687085647 pbc="F F F"
Ce       0.00000000       0.00000000       0.00000000       0.00000000       0.00000000      -4.98577595
Ce       0.00000000       0.00000000       2.29636364       0.00000000       0.00000000       4.98577595
2
Properties=species:S:1:pos:R:3:forces:R:3 energy=-6.628010207742159 pbc="F F F"
Ce       0.00000000       0.00000000       0.00000000       0.00000000       0.00000000      -2.82515049
Ce       0.00000000       0.00000000       2.35515152       0.00000000       0.00000000       2.82515049
2
Properties=species:S:1:pos:R:3:forces:R:3 energy=-6.7420491612648235 pbc="F F F"
Ce       0.00000000       0.00000000       0.00000000       0.00000000       0.00000000      -1.14158845
Ce       0.00000000       0.00000000       2.41393939       0.00000000       0.00000000       1.14158845
2
Properties=species:S:1:pos:R:3:forces:R:3 energy=-6.771110763827252 pbc="F F F"
Ce       0.00000000       0.00000000       0.00000000       0.00000000       0.00000000       0.08550709
Ce       0.00000000       0.00000000       2.47272727       0.00000000       0.00000000      -0.08550709
2
Properties=species:S:1:pos:R:3:forces:R:3 energy=-6.738928023002912 pbc="F F F"
Ce       0.00000000       0.00000000       0.00000000       0.00000000       0.00000000       0.95663369
Ce       0.00000000       0.00000000       2.53151515       0.00000000       0.00000000      -0.95663369
2
Properties=species:S:1:pos:R:3:forces:R:3 energy=-6.66542018535094 pbc="F F F"
Ce       0.00000000       0.00000000       0.00000000       0.00000000       0.00000000       1.48006833
Ce       0.00000000       0.00000000       2.59030303       0.00000000       0.00000000      -1.48006833
2
Properties=species:S:1:pos:R:3:forces:R:3 energy=-6.5719913556698275 pbc="F F F"
Ce       0.00000000       0.00000000       0.00000000       0.00000000       0.00000000       1.64984465
Ce       0.00000000       0.00000000       2.64909091       0.00000000       0.00000000      -1.64984465
2
Properties=species:S:1:pos:R:3:forces:R:3 energy=-6.475285845493151 pbc="F F F"
Ce       0.00000000       0.00000000       0.00000000       0.00000000       0.00000000       1.62142110
Ce       0.00000000       0.00000000       2.70787879       0.00000000       0.00000000      -1.62142110
2
Properties=species:S:1:pos:R:3:forces:R:3 energy=-6.3825990685203555 pbc="F F F"
Ce       0.00000000       0.00000000       0.00000000       0.00000000       0.00000000       1.52537882
Ce       0.00000000       0.00000000       2.76666667       0.00000000       0.00000000      -1.52537882
2
Properties=species:S:1:pos:R:3:forces:R:3 energy=-6.296629726661898 pbc="F F F"
Ce       0.00000000       0.00000000       0.00000000       0.00000000       0.00000000       1.39323747
Ce       0.00000000       0.00000000       2.82545455       0.00000000       0.00000000      -1.39323747
2
Properties=species:S:1:pos:R:3:forces:R:3 energy=-6.219531945283168 pbc="F F F"
Ce       0.00000000       0.00000000       0.00000000       0.00000000       0.00000000       1.22368550
Ce       0.00000000       0.00000000       2.88424242       0.00000000       0.00000000      -1.22368550
2
Properties=species:S:1:pos:R:3:forces:R:3 energy=-6.1532900909695005 pbc="F F F"
Ce       0.00000000       0.00000000       0.00000000       0.00000000       0.00000000       1.02755153
Ce       0.00000000       0.00000000       2.94303030       0.00000000       0.00000000      -1.02755153
2
Properties=species:S:1:pos:R:3:forces:R:3 energy=-6.098636329002301 pbc="F F F"
Ce       0.00000000       0.00000000       0.00000000       0.00000000       0.00000000       0.83513987
Ce       0.00000000       0.00000000       3.00181818       0.00000000       0.00000000      -0.83513987
2
Properties=species:S:1:pos:R:3:forces:R:3 energy=-6.0545804730084365 pbc="F F F"
Ce       0.00000000       0.00000000       0.00000000       0.00000000       0.00000000       0.66755456
Ce       0.00000000       0.00000000       3.06060606       0.00000000       0.00000000      -0.66755456
2
Properties=species:S:1:pos:R:3:forces:R:3 energy=-6.019933959685671 pbc="F F F"
Ce       0.00000000       0.00000000       0.00000000       0.00000000       0.00000000       0.51103181
Ce       0.00000000       0.00000000       3.11939394       0.00000000       0.00000000      -0.51103181
2
Properties=species:S:1:pos:R:3:forces:R:3 energy=-5.994595387525983 pbc="F F F"
Ce       0.00000000       0.00000000       0.00000000       0.00000000       0.00000000       0.35046202
Ce       0.00000000       0.00000000       3.17818182       0.00000000       0.00000000      -0.35046202
2
Properties=species:S:1:pos:R:3:forces:R:3 energy=-5.978640724189005 pbc="F F F"
Ce       0.00000000       0.00000000       0.00000000       0.00000000       0.00000000       0.19450432
Ce       0.00000000       0.00000000       3.23696970       0.00000000       0.00000000      -0.19450432
2
Properties=species:S:1:pos:R:3:forces:R:3 energy=-5.9713305204512634 pbc="F F F"
Ce       0.00000000       0.00000000       0.00000000       0.00000000       0.00000000       0.05840352
Ce       0.00000000       0.00000000       3.29575758       0.00000000       0.00000000      -0.05840352
2
Properties=species:S:1:pos:R:3:forces:R:3 energy=-5.971219595423855 pbc="F F F"
Ce       0.00000000       0.00000000       0.00000000       0.00000000       0.00000000      -0.04979237
Ce       0.00000000       0.00000000       3.35454545       0.00000000       0.00000000       0.04979237
2
Properties=species:S:1:pos:R:3:forces:R:3 energy=-5.976646255637655 pbc="F F F"
Ce       0.00000000       0.00000000       0.00000000       0.00000000       0.00000000      -0.13052863
Ce       0.00000000       0.00000000       3.41333333       0.00000000       0.00000000       0.13052863
2
Properties=species:S:1:pos:R:3:forces:R:3 energy=-5.9860880345702645 pbc="F F F"
Ce       0.00000000       0.00000000       0.00000000       0.00000000       0.00000000      -0.18672334
Ce       0.00000000       0.00000000       3.47212121       0.00000000       0.00000000       0.18672334
2
Properties=species:S:1:pos:R:3:forces:R:3 energy=-5.998133060241769 pbc="F F F"
Ce       0.00000000       0.00000000       0.00000000       0.00000000       0.00000000      -0.21901940
Ce       0.00000000       0.00000000       3.53090909       0.00000000       0.00000000       0.21901940
2
Properties=species:S:1:pos:R:3:forces:R:3 energy=-6.011380895260584 pbc="F F F"
Ce       0.00000000       0.00000000       0.00000000       0.00000000       0.00000000      -0.22801779
Ce       0.00000000       0.00000000       3.58969697       0.00000000       0.00000000       0.22801779
2
Properties=species:S:1:pos:R:3:forces:R:3 energy=-6.024554104047185 pbc="F F F"
Ce       0.00000000       0.00000000       0.00000000       0.00000000       0.00000000      -0.21739000
Ce       0.00000000       0.00000000       3.64848485       0.00000000       0.00000000       0.21739000
2
Properties=species:S:1:pos:R:3:forces:R:3 energy=-6.036674698421756 pbc="F F F"
Ce       0.00000000       0.00000000       0.00000000       0.00000000       0.00000000      -0.19308050
Ce       0.00000000       0.00000000       3.70727273       0.00000000       0.00000000       0.19308050
2
Properties=species:S:1:pos:R:3:forces:R:3 energy=-6.047098444537001 pbc="F F F"
Ce       0.00000000       0.00000000       0.00000000       0.00000000       0.00000000      -0.16067092
Ce       0.00000000       0.00000000       3.76606061       0.00000000       0.00000000       0.16067092
2
Properties=species:S:1:pos:R:3:forces:R:3 energy=-6.055480562280975 pbc="F F F"
Ce       0.00000000       0.00000000       0.00000000       0.00000000       0.00000000      -0.12384165
Ce       0.00000000       0.00000000       3.82484848       0.00000000       0.00000000       0.12384165
2
Properties=species:S:1:pos:R:3:forces:R:3 energy=-6.06161168695902 pbc="F F F"
Ce       0.00000000       0.00000000       0.00000000       0.00000000       0.00000000      -0.08448036
Ce       0.00000000       0.00000000       3.88363636       0.00000000       0.00000000       0.08448036
2
Properties=species:S:1:pos:R:3:forces:R:3 energy=-6.0653797064819965 pbc="F F F"
Ce       0.00000000       0.00000000       0.00000000       0.00000000       0.00000000      -0.04352133
Ce       0.00000000       0.00000000       3.94242424       0.00000000       0.00000000       0.04352133
2
Properties=species:S:1:pos:R:3:forces:R:3 energy=-6.066712578921163 pbc="F F F"
Ce       0.00000000       0.00000000       0.00000000       0.00000000       0.00000000      -0.00169482
Ce       0.00000000       0.00000000       4.00121212       0.00000000       0.00000000       0.00169482
2
Properties=species:S:1:pos:R:3:forces:R:3 energy=-6.065578307165601 pbc="F F F"
Ce       0.00000000       0.00000000       0.00000000       0.00000000       0.00000000       0.04013411
Ce       0.00000000       0.00000000       4.06000000       0.00000000       0.00000000      -0.04013411
2
Properties=species:S:1:pos:R:3:forces:R:3 energy=-6.0620126113165025 pbc="F F F"
Ce       0.00000000       0.00000000       0.00000000       0.00000000       0.00000000       0.08091556
Ce       0.00000000       0.00000000       4.11878788       0.00000000       0.00000000      -0.08091556
2
Properties=species:S:1:pos:R:3:forces:R:3 energy=-6.05610749726666 pbc="F F F"
Ce       0.00000000       0.00000000       0.00000000       0.00000000       0.00000000       0.11949079
Ce       0.00000000       0.00000000       4.17757576       0.00000000       0.00000000      -0.11949079
2
Properties=species:S:1:pos:R:3:forces:R:3 energy=-6.048029363841188 pbc="F F F"
Ce       0.00000000       0.00000000       0.00000000       0.00000000       0.00000000       0.15466712
Ce       0.00000000       0.00000000       4.23636364       0.00000000       0.00000000      -0.15466712
2
Properties=species:S:1:pos:R:3:forces:R:3 energy=-6.038010451406901 pbc="F F F"
Ce       0.00000000       0.00000000       0.00000000       0.00000000       0.00000000       0.18535022
Ce       0.00000000       0.00000000       4.29515152       0.00000000       0.00000000      -0.18535022
2
Properties=species:S:1:pos:R:3:forces:R:3 energy=-6.026342150312985 pbc="F F F"
Ce       0.00000000       0.00000000       0.00000000       0.00000000       0.00000000       0.21071503
Ce       0.00000000       0.00000000       4.35393939       0.00000000       0.00000000      -0.21071503
2
Properties=species:S:1:pos:R:3:forces:R:3 energy=-6.0133502243657055 pbc="F F F"
Ce       0.00000000       0.00000000       0.00000000       0.00000000       0.00000000       0.23037408
Ce       0.00000000       0.00000000       4.41272727       0.00000000       0.00000000      -0.23037408
2
Properties=species:S:1:pos:R:3:forces:R:3 energy=-5.999366203766734 pbc="F F F"
Ce       0.00000000       0.00000000       0.00000000       0.00000000       0.00000000       0.24447055
Ce       0.00000000       0.00000000       4.47151515       0.00000000       0.00000000      -0.24447055
2
Properties=species:S:1:pos:R:3:forces:R:3 energy=-5.984701661249187 pbc="F F F"
Ce       0.00000000       0.00000000       0.00000000       0.00000000       0.00000000       0.25361422
Ce       0.00000000       0.00000000       4.53030303       0.00000000       0.00000000      -0.25361422
2
Properties=species:S:1:pos:R:3:forces:R:3 energy=-5.9696252985514535 pbc="F F F"
Ce       0.00000000       0.00000000       0.00000000       0.00000000       0.00000000       0.25872234
Ce       0.00000000       0.00000000       4.58909091       0.00000000       0.00000000      -0.25872234
2
Properties=species:S:1:pos:R:3:forces:R:3 energy=-5.954342950934768 pbc="F F F"
Ce       0.00000000       0.00000000       0.00000000       0.00000000       0.00000000       0.26081550
Ce       0.00000000       0.00000000       4.64787879       0.00000000       0.00000000      -0.26081550
2
Properties=species:S:1:pos:R:3:forces:R:3 energy=-5.939000464045276 pbc="F F F"
Ce       0.00000000       0.00000000       0.00000000       0.00000000       0.00000000       0.26082635
Ce       0.00000000       0.00000000       4.70666667       0.00000000       0.00000000      -0.26082635
2
Properties=species:S:1:pos:R:3:forces:R:3 energy=-5.923701797886933 pbc="F F F"
Ce       0.00000000       0.00000000       0.00000000       0.00000000       0.00000000       0.25949872
Ce       0.00000000       0.00000000       4.76545455       0.00000000       0.00000000      -0.25949872
2
Properties=species:S:1:pos:R:3:forces:R:3 energy=-5.908505231131169 pbc="F F F"
Ce       0.00000000       0.00000000       0.00000000       0.00000000       0.00000000       0.25733867
Ce       0.00000000       0.00000000       4.82424242       0.00000000       0.00000000      -0.25733867
2
Properties=species:S:1:pos:R:3:forces:R:3 energy=-5.89345675714099 pbc="F F F"
Ce       0.00000000       0.00000000       0.00000000       0.00000000       0.00000000       0.25461015
Ce       0.00000000       0.00000000       4.88303030       0.00000000       0.00000000      -0.25461015
2
Properties=species:S:1:pos:R:3:forces:R:3 energy=-5.878579566627006 pbc="F F F"
Ce       0.00000000       0.00000000       0.00000000       0.00000000       0.00000000       0.25136232
Ce       0.00000000       0.00000000       4.94181818       0.00000000       0.00000000      -0.25136232
2
Properties=species:S:1:pos:R:3:forces:R:3 energy=-5.863913183140443 pbc="F F F"
Ce       0.00000000       0.00000000       0.00000000       0.00000000       0.00000000       0.24742451
Ce       0.00000000       0.00000000       5.00060606       0.00000000       0.00000000      -0.24742451
2
Properties=species:S:1:pos:R:3:forces:R:3 energy=-5.849508683614195 pbc="F F F"
Ce       0.00000000       0.00000000       0.00000000       0.00000000       0.00000000       0.24240865
Ce       0.00000000       0.00000000       5.05939394       0.00000000       0.00000000      -0.24240865
2
Properties=species:S:1:pos:R:3:forces:R:3 energy=-5.835443957151874 pbc="F F F"
Ce       0.00000000       0.00000000       0.00000000       0.00000000       0.00000000       0.23576163
Ce       0.00000000       0.00000000       5.11818182       0.00000000       0.00000000      -0.23576163
2
Properties=species:S:1:pos:R:3:forces:R:3 energy=-5.821834189109653 pbc="F F F"
Ce       0.00000000       0.00000000       0.00000000       0.00000000       0.00000000       0.22682746
Ce       0.00000000       0.00000000       5.17696970       0.00000000       0.00000000      -0.22682746
2
Properties=species:S:1:pos:R:3:forces:R:3 energy=-5.808833766860988 pbc="F F F"
Ce       0.00000000       0.00000000       0.00000000       0.00000000       0.00000000       0.21498932
Ce       0.00000000       0.00000000       5.23575758       0.00000000       0.00000000      -0.21498932
2
Properties=species:S:1:pos:R:3:forces:R:3 energy=-5.796622931524007 pbc="F F F"
Ce       0.00000000       0.00000000       0.00000000       0.00000000       0.00000000       0.19980599
Ce       0.00000000       0.00000000       5.29454545       0.00000000       0.00000000      -0.19980599
2
Properties=species:S:1:pos:R:3:forces:R:3 energy=-5.785407758954581 pbc="F F F"
Ce       0.00000000       0.00000000       0.00000000       0.00000000       0.00000000       0.18116449
Ce       0.00000000       0.00000000       5.35333333       0.00000000       0.00000000      -0.18116449
2
Properties=species:S:1:pos:R:3:forces:R:3 energy=-5.775381998518464 pbc="F F F"
Ce       0.00000000       0.00000000       0.00000000       0.00000000       0.00000000       0.15939069
Ce       0.00000000       0.00000000       5.41212121       0.00000000       0.00000000      -0.15939069
2
Properties=species:S:1:pos:R:3:forces:R:3 energy=-5.766713723234776 pbc="F F F"
Ce       0.00000000       0.00000000       0.00000000       0.00000000       0.00000000       0.13527897
Ce       0.00000000       0.00000000       5.47090909       0.00000000       0.00000000      -0.13527897
2
Properties=species:S:1:pos:R:3:forces:R:3 energy=-5.759501433830964 pbc="F F F"
Ce       0.00000000       0.00000000       0.00000000       0.00000000       0.00000000       0.11002735
Ce       0.00000000       0.00000000       5.52969697       0.00000000       0.00000000      -0.11002735
2
Properties=species:S:1:pos:R:3:forces:R:3 energy=-5.7537702345420625 pbc="F F F"
Ce       0.00000000       0.00000000       0.00000000       0.00000000       0.00000000       0.08510969
Ce       0.00000000       0.00000000       5.58848485       0.00000000       0.00000000      -0.08510969
2
Properties=species:S:1:pos:R:3:forces:R:3 energy=-5.749457524828131 pbc="F F F"
Ce       0.00000000       0.00000000       0.00000000       0.00000000       0.00000000       0.06208787
Ce       0.00000000       0.00000000       5.64727273       0.00000000       0.00000000      -0.06208787
2
Properties=species:S:1:pos:R:3:forces:R:3 energy=-5.7464072345627555 pbc="F F F"
Ce       0.00000000       0.00000000       0.00000000       0.00000000       0.00000000       0.04236956
Ce       0.00000000       0.00000000       5.70606061       0.00000000       0.00000000      -0.04236956
2
Properties=species:S:1:pos:R:3:forces:R:3 energy=-5.744389855945423 pbc="F F F"
Ce       0.00000000       0.00000000       0.00000000       0.00000000       0.00000000       0.02695924
Ce       0.00000000       0.00000000       5.76484848       0.00000000       0.00000000      -0.02695924
2
Properties=species:S:1:pos:R:3:forces:R:3 energy=-5.743141537812855 pbc="F F F"
Ce       0.00000000       0.00000000       0.00000000       0.00000000       0.00000000       0.01634145
Ce       0.00000000       0.00000000       5.82363636       0.00000000       0.00000000      -0.01634145
2
Properties=species:S:1:pos:R:3:forces:R:3 energy=-5.742379301662467 pbc="F F F"
Ce       0.00000000       0.00000000       0.00000000       0.00000000       0.00000000       0.01027567
Ce       0.00000000       0.00000000       5.88242424       0.00000000       0.00000000      -0.01027567
2
Properties=species:S:1:pos:R:3:forces:R:3 energy=-5.741863988908986 pbc="F F F"
Ce       0.00000000       0.00000000       0.00000000       0.00000000       0.00000000       0.00780419
Ce       0.00000000       0.00000000       5.94121212       0.00000000       0.00000000      -0.00780419
2
Properties=species:S:1:pos:R:3:forces:R:3 energy=-5.741423145900223 pbc="F F F"
Ce       0.00000000       0.00000000       0.00000000       0.00000000       0.00000000       0.00735437
Ce       0.00000000       0.00000000       6.00000000       0.00000000       0.00000000      -0.00735437
