2
Properties=species:S:1:pos:R:3:forces:R:3 energy=-540353.2160591331 pbc="F F F"
Cl       0.00000000       0.00000000       0.00000000       0.00000000       0.00000000 6045618.50000000
Cl       0.00000000       0.00000000       0.18000000       0.00000000       0.00000000 -6045618.50000000
2
Properties=species:S:1:pos:R:3:forces:R:3 energy=-244332.79418413312 pbc="F F F"
Cl       0.00000000       0.00000000       0.00000000       0.00000000       0.00000000 3931190.50000000
Cl       0.00000000       0.00000000       0.23878788       0.00000000       0.00000000 -3931190.50000000
2
Properties=species:S:1:pos:R:3:forces:R:3 energy=-77390.99730912677 pbc="F F F"
Cl       0.00000000       0.00000000       0.00000000       0.00000000       0.00000000 1838505.00000000
Cl       0.00000000       0.00000000       0.29757576       0.00000000       0.00000000 -1838505.00000000
2
Properties=species:S:1:pos:R:3:forces:R:3 energy=-18632.542230995437 pbc="F F F"
Cl       0.00000000       0.00000000       0.00000000       0.00000000       0.00000000  446444.46875000
Cl       0.00000000       0.00000000       0.35636364       0.00000000       0.00000000 -446444.46875000
2
Properties=species:S:1:pos:R:3:forces:R:3 energy=-3921.7563423045544 pbc="F F F"
Cl       0.00000000       0.00000000       0.00000000       0.00000000       0.00000000  121758.50000000
Cl       0.00000000       0.00000000       0.41515152       0.00000000       0.00000000 -121758.50000000
2
Properties=species:S:1:pos:R:3:forces:R:3 energy=-1307.4339545743958 pbc="F F F"
Cl       0.00000000       0.00000000       0.00000000       0.00000000       0.00000000   24467.75781250
Cl       0.00000000       0.00000000       0.47393939       0.00000000       0.00000000  -24467.75781250
2
Properties=species:S:1:pos:R:3:forces:R:3 energy=-289.83700016216835 pbc="F F F"
Cl       0.00000000       0.00000000       0.00000000       0.00000000       0.00000000   -3949.25390625
Cl       0.00000000       0.00000000       0.53272727       0.00000000       0.00000000    3949.25390625
2
Properties=species:S:1:pos:R:3:forces:R:3 energy=93.59930976632639 pbc="F F F"
Cl       0.00000000       0.00000000       0.00000000       0.00000000       0.00000000    2676.67724609
Cl       0.00000000       0.00000000       0.59151515       0.00000000       0.00000000   -2676.67724609
2
Properties=species:S:1:pos:R:3:forces:R:3 energy=93.60422328647384 pbc="F F F"
Cl       0.00000000       0.00000000       0.00000000       0.00000000       0.00000000    -139.63542175
Cl       0.00000000       0.00000000       0.65030303       0.00000000       0.00000000     139.63542175
2
Properties=species:S:1:pos:R:3:forces:R:3 energy=75.76830134303817 pbc="F F F"
Cl       0.00000000       0.00000000       0.00000000       0.00000000       0.00000000    -562.71319580
Cl       0.00000000       0.00000000       0.70909091       0.00000000       0.00000000     562.71319580
2
Properties=species:S:1:pos:R:3:forces:R:3 energy=40.220290019419416 pbc="F F F"
Cl       0.00000000       0.00000000       0.00000000       0.00000000       0.00000000    -555.19537354
Cl       0.00000000       0.00000000       0.76787879       0.00000000       0.00000000     555.19537354
2
Properties=species:S:1:pos:R:3:forces:R:3 energy=20.640264064410793 pbc="F F F"
Cl       0.00000000       0.00000000       0.00000000       0.00000000       0.00000000    -144.89538574
Cl       0.00000000       0.00000000       0.82666667       0.00000000       0.00000000     144.89538574
2
Properties=species:S:1:pos:R:3:forces:R:3 energy=19.7936883367549 pbc="F F F"
Cl       0.00000000       0.00000000       0.00000000       0.00000000       0.00000000      53.78976822
Cl       0.00000000       0.00000000       0.88545455       0.00000000       0.00000000     -53.78976822
2
Properties=species:S:1:pos:R:3:forces:R:3 energy=23.792921021580288 pbc="F F F"
Cl       0.00000000       0.00000000       0.00000000       0.00000000       0.00000000      70.62806702
Cl       0.00000000       0.00000000       0.94424242       0.00000000       0.00000000     -70.62806702
2
Properties=species:S:1:pos:R:3:forces:R:3 energy=27.062148945807174 pbc="F F F"
Cl       0.00000000       0.00000000       0.00000000       0.00000000       0.00000000      23.68913651
Cl       0.00000000       0.00000000       1.00303030       0.00000000       0.00000000     -23.68913651
2
Properties=species:S:1:pos:R:3:forces:R:3 energy=26.151321894815823 pbc="F F F"
Cl       0.00000000       0.00000000       0.00000000       0.00000000       0.00000000     -47.96536636
Cl       0.00000000       0.00000000       1.06181818       0.00000000       0.00000000      47.96536636
2
Properties=species:S:1:pos:R:3:forces:R:3 energy=22.938669187239622 pbc="F F F"
Cl       0.00000000       0.00000000       0.00000000       0.00000000       0.00000000     -64.00943756
Cl       0.00000000       0.00000000       1.12060606       0.00000000       0.00000000      64.00943756
2
Properties=species:S:1:pos:R:3:forces:R:3 energy=18.788372541206066 pbc="F F F"
Cl       0.00000000       0.00000000       0.00000000       0.00000000       0.00000000     -74.54035187
Cl       0.00000000       0.00000000       1.17939394       0.00000000       0.00000000      74.54035187
2
Properties=species:S:1:pos:R:3:forces:R:3 energy=14.833635707107174 pbc="F F F"
Cl       0.00000000       0.00000000       0.00000000       0.00000000       0.00000000     -64.36729431
Cl       0.00000000       0.00000000       1.23818182       0.00000000       0.00000000      64.36729431
2
Properties=species:S:1:pos:R:3:forces:R:3 energy=11.17474354012732 pbc="F F F"
Cl       0.00000000       0.00000000       0.00000000       0.00000000       0.00000000     -61.32120895
Cl       0.00000000       0.00000000       1.29696970       0.00000000       0.00000000      61.32120895
2
Properties=species:S:1:pos:R:3:forces:R:3 energy=7.669843059375226 pbc="F F F"
Cl       0.00000000       0.00000000       0.00000000       0.00000000       0.00000000     -57.33539963
Cl       0.00000000       0.00000000       1.35575758       0.00000000       0.00000000      57.33539963
2
Properties=species:S:1:pos:R:3:forces:R:3 energy=4.557119561212306 pbc="F F F"
Cl       0.00000000       0.00000000       0.00000000       0.00000000       0.00000000     -47.17966461
Cl       0.00000000       0.00000000       1.41454545       0.00000000       0.00000000      47.17966461
2
Properties=species:S:1:pos:R:3:forces:R:3 energy=2.1260775498456237 pbc="F F F"
Cl       0.00000000       0.00000000       0.00000000       0.00000000       0.00000000     -35.88380432
Cl       0.00000000       0.00000000       1.47333333       0.00000000       0.00000000      35.88380432
2
Properties=species:S:1:pos:R:3:forces:R:3 energy=0.31897350277481784 pbc="F F F"
Cl       0.00000000       0.00000000       0.00000000       0.00000000       0.00000000     -25.66250229
Cl       0.00000000       0.00000000       1.53212121       0.00000000       0.00000000      25.66250229
2
Properties=species:S:1:pos:R:3:forces:R:3 energy=-0.9227752598711781 pbc="F F F"
Cl       0.00000000       0.00000000       0.00000000       0.00000000       0.00000000     -17.24678993
Cl       0.00000000       0.00000000       1.59090909       0.00000000       0.00000000      17.24678993
2
Properties=species:S:1:pos:R:3:forces:R:3 energy=-1.7753761047775933 pbc="F F F"
Cl       0.00000000       0.00000000       0.00000000       0.00000000       0.00000000     -12.17075729
Cl       0.00000000       0.00000000       1.64969697       0.00000000       0.00000000      12.17075729
2
Properties=species:S:1:pos:R:3:forces:R:3 energy=-2.4018493783205295 pbc="F F F"
Cl       0.00000000       0.00000000       0.00000000       0.00000000       0.00000000      -9.34828281
Cl       0.00000000       0.00000000       1.70848485       0.00000000       0.00000000       9.34828281
2
Properties=species:S:1:pos:R:3:forces:R:3 energy=-2.878408824630998 pbc="F F F"
Cl       0.00000000       0.00000000       0.00000000       0.00000000       0.00000000      -6.92371559
Cl       0.00000000       0.00000000       1.76727273       0.00000000       0.00000000       6.92371559
2
Properties=species:S:1:pos:R:3:forces:R:3 energy=-3.225784020493457 pbc="F F F"
Cl       0.00000000       0.00000000       0.00000000       0.00000000       0.00000000      -4.94447899
Cl       0.00000000       0.00000000       1.82606061       0.00000000       0.00000000       4.94447899
2
Properties=species:S:1:pos:R:3:forces:R:3 energy=-3.45716877063497 pbc="F F F"
Cl       0.00000000       0.00000000       0.00000000       0.00000000       0.00000000      -2.84679151
Cl       0.00000000       0.00000000       1.88484848       0.00000000       0.00000000       2.84679151
2
Properties=species:S:1:pos:R:3:forces:R:3 energy=-3.5635809895328965 pbc="F F F"
Cl       0.00000000       0.00000000       0.00000000       0.00000000       0.00000000      -0.90819186
Cl       0.00000000       0.00000000       1.94363636       0.00000000       0.00000000       0.90819186
2
Properties=species:S:1:pos:R:3:forces:R:3 energy=-3.5751317779692133 pbc="F F F"
Cl       0.00000000       0.00000000       0.00000000       0.00000000       0.00000000       0.45673978
Cl       0.00000000       0.00000000       2.00242424       0.00000000       0.00000000      -0.45673978
2
Properties=species:S:1:pos:R:3:forces:R:3 energy=-3.516577981995994 pbc="F F F"
Cl       0.00000000       0.00000000       0.00000000       0.00000000       0.00000000       1.48967648
Cl       0.00000000       0.00000000       2.06121212       0.00000000       0.00000000      -1.48967648
2
Properties=species:S:1:pos:R:3:forces:R:3 energy=-3.40234716313045 pbc="F F F"
Cl       0.00000000       0.00000000       0.00000000       0.00000000       0.00000000       2.38722134
Cl       0.00000000       0.00000000       2.12000000       0.00000000       0.00000000      -2.38722134
2
Properties=species:S:1:pos:R:3:forces:R:3 energy=-3.2389997786995326 pbc="F F F"
Cl       0.00000000       0.00000000       0.00000000       0.00000000       0.00000000       3.11099529
Cl       0.00000000       0.00000000       2.17878788       0.00000000       0.00000000      -3.11099529
2
Properties=species:S:1:pos:R:3:forces:R:3 energy=-3.0465500998971593 pbc="F F F"
Cl       0.00000000       0.00000000       0.00000000       0.00000000       0.00000000       3.34763956
Cl       0.00000000       0.00000000       2.23757576       0.00000000       0.00000000      -3.34763956
2
Properties=species:S:1:pos:R:3:forces:R:3 energy=-2.853586256307421 pbc="F F F"
Cl       0.00000000       0.00000000       0.00000000       0.00000000       0.00000000       3.16650152
Cl       0.00000000       0.00000000       2.29636364       0.00000000       0.00000000      -3.16650152
2
Properties=species:S:1:pos:R:3:forces:R:3 energy=-2.679791943268945 pbc="F F F"
Cl       0.00000000       0.00000000       0.00000000       0.00000000       0.00000000       2.70046210
Cl       0.00000000       0.00000000       2.35515152       0.00000000       0.00000000      -2.70046210
2
Properties=species:S:1:pos:R:3:forces:R:3 energy=-2.538195341808338 pbc="F F F"
Cl       0.00000000       0.00000000       0.00000000       0.00000000       0.00000000       2.13153386
Cl       0.00000000       0.00000000       2.41393939       0.00000000       0.00000000      -2.13153386
2
Properties=species:S:1:pos:R:3:forces:R:3 energy=-2.4262619357495323 pbc="F F F"
Cl       0.00000000       0.00000000       0.00000000       0.00000000       0.00000000       1.69731832
Cl       0.00000000       0.00000000       2.47272727       0.00000000       0.00000000      -1.69731832
2
Properties=species:S:1:pos:R:3:forces:R:3 energy=-2.337395518194886 pbc="F F F"
Cl       0.00000000       0.00000000       0.00000000       0.00000000       0.00000000       1.32924247
Cl       0.00000000       0.00000000       2.53151515       0.00000000       0.00000000      -1.32924247
2
Properties=species:S:1:pos:R:3:forces:R:3 energy=-2.269621259414821 pbc="F F F"
Cl       0.00000000       0.00000000       0.00000000       0.00000000       0.00000000       0.98105317
Cl       0.00000000       0.00000000       2.59030303       0.00000000       0.00000000      -0.98105317
2
Properties=species:S:1:pos:R:3:forces:R:3 energy=-2.2214135329989353 pbc="F F F"
Cl       0.00000000       0.00000000       0.00000000       0.00000000       0.00000000       0.66486734
Cl       0.00000000       0.00000000       2.64909091       0.00000000       0.00000000      -0.66486734
2
Properties=species:S:1:pos:R:3:forces:R:3 energy=-2.1905491563448 pbc="F F F"
Cl       0.00000000       0.00000000       0.00000000       0.00000000       0.00000000       0.39550588
Cl       0.00000000       0.00000000       2.70787879       0.00000000       0.00000000      -0.39550588
2
Properties=species:S:1:pos:R:3:forces:R:3 energy=-2.1734337001367514 pbc="F F F"
Cl       0.00000000       0.00000000       0.00000000       0.00000000       0.00000000       0.20032670
Cl       0.00000000       0.00000000       2.76666667       0.00000000       0.00000000      -0.20032670
2
Properties=species:S:1:pos:R:3:forces:R:3 energy=-2.165528850050563 pbc="F F F"
Cl       0.00000000       0.00000000       0.00000000       0.00000000       0.00000000       0.07897215
Cl       0.00000000       0.00000000       2.82545455       0.00000000       0.00000000      -0.07897215
2
Properties=species:S:1:pos:R:3:forces:R:3 energy=-2.163245996462975 pbc="F F F"
Cl       0.00000000       0.00000000       0.00000000       0.00000000       0.00000000       0.00378114
Cl       0.00000000       0.00000000       2.88424242       0.00000000       0.00000000      -0.00378114
2
Properties=species:S:1:pos:R:3:forces:R:3 energy=-2.1647345910967686 pbc="F F F"
Cl       0.00000000       0.00000000       0.00000000       0.00000000       0.00000000      -0.05308660
Cl       0.00000000       0.00000000       2.94303030       0.00000000       0.00000000       0.05308660
2
Properties=species:S:1:pos:R:3:forces:R:3 energy=-2.1694083263485724 pbc="F F F"
Cl       0.00000000       0.00000000       0.00000000       0.00000000       0.00000000      -0.10531019
Cl       0.00000000       0.00000000       3.00181818       0.00000000       0.00000000       0.10531019
2
Properties=species:S:1:pos:R:3:forces:R:3 energy=-2.1770081976304736 pbc="F F F"
Cl       0.00000000       0.00000000       0.00000000       0.00000000       0.00000000      -0.15175320
Cl       0.00000000       0.00000000       3.06060606       0.00000000       0.00000000       0.15175320
2
Properties=species:S:1:pos:R:3:forces:R:3 energy=-2.1870011466133237 pbc="F F F"
Cl       0.00000000       0.00000000       0.00000000       0.00000000       0.00000000      -0.18562752
Cl       0.00000000       0.00000000       3.11939394       0.00000000       0.00000000       0.18562752
2
Properties=species:S:1:pos:R:3:forces:R:3 energy=-2.198491230803202 pbc="F F F"
Cl       0.00000000       0.00000000       0.00000000       0.00000000       0.00000000      -0.20223233
Cl       0.00000000       0.00000000       3.17818182       0.00000000       0.00000000       0.20223233
2
Properties=species:S:1:pos:R:3:forces:R:3 energy=-2.210455006787429 pbc="F F F"
Cl       0.00000000       0.00000000       0.00000000       0.00000000       0.00000000      -0.20254475
Cl       0.00000000       0.00000000       3.23696970       0.00000000       0.00000000       0.20254475
2
Properties=species:S:1:pos:R:3:forces:R:3 energy=-2.2221302855670277 pbc="F F F"
Cl       0.00000000       0.00000000       0.00000000       0.00000000       0.00000000      -0.19403793
Cl       0.00000000       0.00000000       3.29575758       0.00000000       0.00000000       0.19403793
2
Properties=species:S:1:pos:R:3:forces:R:3 energy=-2.2332910766957643 pbc="F F F"
Cl       0.00000000       0.00000000       0.00000000       0.00000000       0.00000000      -0.18649499
Cl       0.00000000       0.00000000       3.35454545       0.00000000       0.00000000       0.18649499
2
Properties=species:S:1:pos:R:3:forces:R:3 energy=-2.244198950890009 pbc="F F F"
Cl       0.00000000       0.00000000       0.00000000       0.00000000       0.00000000      -0.18589304
Cl       0.00000000       0.00000000       3.41333333       0.00000000       0.00000000       0.18589304
2
Properties=species:S:1:pos:R:3:forces:R:3 energy=-2.2552833112106945 pbc="F F F"
Cl       0.00000000       0.00000000       0.00000000       0.00000000       0.00000000      -0.19210856
Cl       0.00000000       0.00000000       3.47212121       0.00000000       0.00000000       0.19210856
2
Properties=species:S:1:pos:R:3:forces:R:3 energy=-2.2668413199388104 pbc="F F F"
Cl       0.00000000       0.00000000       0.00000000       0.00000000       0.00000000      -0.20117988
Cl       0.00000000       0.00000000       3.53090909       0.00000000       0.00000000       0.20117988
2
Properties=species:S:1:pos:R:3:forces:R:3 energy=-2.2789105355368307 pbc="F F F"
Cl       0.00000000       0.00000000       0.00000000       0.00000000       0.00000000      -0.20890930
Cl       0.00000000       0.00000000       3.58969697       0.00000000       0.00000000       0.20890930
2
Properties=species:S:1:pos:R:3:forces:R:3 energy=-2.291333613614587 pbc="F F F"
Cl       0.00000000       0.00000000       0.00000000       0.00000000       0.00000000      -0.21306711
Cl       0.00000000       0.00000000       3.64848485       0.00000000       0.00000000       0.21306711
2
Properties=species:S:1:pos:R:3:forces:R:3 energy=-2.3038900732079597 pbc="F F F"
Cl       0.00000000       0.00000000       0.00000000       0.00000000       0.00000000      -0.21359387
Cl       0.00000000       0.00000000       3.70727273       0.00000000       0.00000000       0.21359387
2
Properties=species:S:1:pos:R:3:forces:R:3 energy=-2.3163998377983908 pbc="F F F"
Cl       0.00000000       0.00000000       0.00000000       0.00000000       0.00000000      -0.21171311
Cl       0.00000000       0.00000000       3.76606061       0.00000000       0.00000000       0.21171311
2
Properties=species:S:1:pos:R:3:forces:R:3 energy=-2.3287648857043166 pbc="F F F"
Cl       0.00000000       0.00000000       0.00000000       0.00000000       0.00000000      -0.20892742
Cl       0.00000000       0.00000000       3.82484848       0.00000000       0.00000000       0.20892742
2
Properties=species:S:1:pos:R:3:forces:R:3 energy=-2.3409679154362757 pbc="F F F"
Cl       0.00000000       0.00000000       0.00000000       0.00000000       0.00000000      -0.20632708
Cl       0.00000000       0.00000000       3.88363636       0.00000000       0.00000000       0.20632708
2
Properties=species:S:1:pos:R:3:forces:R:3 energy=-2.3530341654621214 pbc="F F F"
Cl       0.00000000       0.00000000       0.00000000       0.00000000       0.00000000      -0.20431767
Cl       0.00000000       0.00000000       3.94242424       0.00000000       0.00000000       0.20431767
2
Properties=species:S:1:pos:R:3:forces:R:3 energy=-2.3649991382078657 pbc="F F F"
Cl       0.00000000       0.00000000       0.00000000       0.00000000       0.00000000      -0.20271212
Cl       0.00000000       0.00000000       4.00121212       0.00000000       0.00000000       0.20271212
2
Properties=species:S:1:pos:R:3:forces:R:3 energy=-2.376867784547232 pbc="F F F"
Cl       0.00000000       0.00000000       0.00000000       0.00000000       0.00000000      -0.20103082
Cl       0.00000000       0.00000000       4.06000000       0.00000000       0.00000000       0.20103082
2
Properties=species:S:1:pos:R:3:forces:R:3 energy=-2.3886242987622883 pbc="F F F"
Cl       0.00000000       0.00000000       0.00000000       0.00000000       0.00000000      -0.19880956
Cl       0.00000000       0.00000000       4.11878788       0.00000000       0.00000000       0.19880956
2
Properties=species:S:1:pos:R:3:forces:R:3 energy=-2.4002261359042123 pbc="F F F"
Cl       0.00000000       0.00000000       0.00000000       0.00000000       0.00000000      -0.19574992
Cl       0.00000000       0.00000000       4.17757576       0.00000000       0.00000000       0.19574992
2
Properties=species:S:1:pos:R:3:forces:R:3 energy=-2.4116214306047676 pbc="F F F"
Cl       0.00000000       0.00000000       0.00000000       0.00000000       0.00000000      -0.19172697
Cl       0.00000000       0.00000000       4.23636364       0.00000000       0.00000000       0.19172697
2
Properties=species:S:1:pos:R:3:forces:R:3 energy=-2.4227504814407532 pbc="F F F"
Cl       0.00000000       0.00000000       0.00000000       0.00000000       0.00000000      -0.18674935
Cl       0.00000000       0.00000000       4.29515152       0.00000000       0.00000000       0.18674935
2
Properties=species:S:1:pos:R:3:forces:R:3 energy=-2.4335620180423154 pbc="F F F"
Cl       0.00000000       0.00000000       0.00000000       0.00000000       0.00000000      -0.18092713
Cl       0.00000000       0.00000000       4.35393939       0.00000000       0.00000000       0.18092713
2
Properties=species:S:1:pos:R:3:forces:R:3 energy=-2.4440091479771024 pbc="F F F"
Cl       0.00000000       0.00000000       0.00000000       0.00000000       0.00000000      -0.17443816
Cl       0.00000000       0.00000000       4.41272727       0.00000000       0.00000000       0.17443816
2
Properties=species:S:1:pos:R:3:forces:R:3 energy=-2.454061363210419 pbc="F F F"
Cl       0.00000000       0.00000000       0.00000000       0.00000000       0.00000000      -0.16746485
Cl       0.00000000       0.00000000       4.47151515       0.00000000       0.00000000       0.16746485
2
Properties=species:S:1:pos:R:3:forces:R:3 energy=-2.46369219381622 pbc="F F F"
Cl       0.00000000       0.00000000       0.00000000       0.00000000       0.00000000      -0.16012356
Cl       0.00000000       0.00000000       4.53030303       0.00000000       0.00000000       0.16012356
2
Properties=species:S:1:pos:R:3:forces:R:3 energy=-2.4728813933421026 pbc="F F F"
Cl       0.00000000       0.00000000       0.00000000       0.00000000       0.00000000      -0.15242393
Cl       0.00000000       0.00000000       4.58909091       0.00000000       0.00000000       0.15242393
2
Properties=species:S:1:pos:R:3:forces:R:3 energy=-2.4816042424434217 pbc="F F F"
Cl       0.00000000       0.00000000       0.00000000       0.00000000       0.00000000      -0.14429231
Cl       0.00000000       0.00000000       4.64787879       0.00000000       0.00000000       0.14429231
2
Properties=species:S:1:pos:R:3:forces:R:3 energy=-2.489836862200207 pbc="F F F"
Cl       0.00000000       0.00000000       0.00000000       0.00000000       0.00000000      -0.13563766
Cl       0.00000000       0.00000000       4.70666667       0.00000000       0.00000000       0.13563766
2
Properties=species:S:1:pos:R:3:forces:R:3 energy=-2.497542163260106 pbc="F F F"
Cl       0.00000000       0.00000000       0.00000000       0.00000000       0.00000000      -0.12644643
Cl       0.00000000       0.00000000       4.76545455       0.00000000       0.00000000       0.12644643
2
Properties=species:S:1:pos:R:3:forces:R:3 energy=-2.504694914635234 pbc="F F F"
Cl       0.00000000       0.00000000       0.00000000       0.00000000       0.00000000      -0.11683951
Cl       0.00000000       0.00000000       4.82424242       0.00000000       0.00000000       0.11683951
2
Properties=species:S:1:pos:R:3:forces:R:3 energy=-2.5112765365073004 pbc="F F F"
Cl       0.00000000       0.00000000       0.00000000       0.00000000       0.00000000      -0.10707760
Cl       0.00000000       0.00000000       4.88303030       0.00000000       0.00000000       0.10707760
2
Properties=species:S:1:pos:R:3:forces:R:3 energy=-2.5172884473122803 pbc="F F F"
Cl       0.00000000       0.00000000       0.00000000       0.00000000       0.00000000      -0.09750397
Cl       0.00000000       0.00000000       4.94181818       0.00000000       0.00000000       0.09750397
2
Properties=species:S:1:pos:R:3:forces:R:3 energy=-2.522750914413122 pbc="F F F"
Cl       0.00000000       0.00000000       0.00000000       0.00000000       0.00000000      -0.08845045
Cl       0.00000000       0.00000000       5.00060606       0.00000000       0.00000000       0.08845045
2
Properties=species:S:1:pos:R:3:forces:R:3 energy=-2.5277025863700726 pbc="F F F"
Cl       0.00000000       0.00000000       0.00000000       0.00000000       0.00000000      -0.08013994
Cl       0.00000000       0.00000000       5.05939394       0.00000000       0.00000000       0.08013994
2
Properties=species:S:1:pos:R:3:forces:R:3 energy=-2.532189763312668 pbc="F F F"
Cl       0.00000000       0.00000000       0.00000000       0.00000000       0.00000000      -0.07262377
Cl       0.00000000       0.00000000       5.11818182       0.00000000       0.00000000       0.07262377
2
Properties=species:S:1:pos:R:3:forces:R:3 energy=-2.536254256995105 pbc="F F F"
Cl       0.00000000       0.00000000       0.00000000       0.00000000       0.00000000      -0.06577608
Cl       0.00000000       0.00000000       5.17696970       0.00000000       0.00000000       0.06577608
2
Properties=species:S:1:pos:R:3:forces:R:3 energy=-2.5399307689838295 pbc="F F F"
Cl       0.00000000       0.00000000       0.00000000       0.00000000       0.00000000      -0.05933991
Cl       0.00000000       0.00000000       5.23575758       0.00000000       0.00000000       0.05933991
2
Properties=species:S:1:pos:R:3:forces:R:3 energy=-2.5432340233798527 pbc="F F F"
Cl       0.00000000       0.00000000       0.00000000       0.00000000       0.00000000      -0.05301283
Cl       0.00000000       0.00000000       5.29454545       0.00000000       0.00000000       0.05301283
2
Properties=species:S:1:pos:R:3:forces:R:3 energy=-2.5461611529844306 pbc="F F F"
Cl       0.00000000       0.00000000       0.00000000       0.00000000       0.00000000      -0.04654157
Cl       0.00000000       0.00000000       5.35333333       0.00000000       0.00000000       0.04654157
2
Properties=species:S:1:pos:R:3:forces:R:3 energy=-2.548700279992046 pbc="F F F"
Cl       0.00000000       0.00000000       0.00000000       0.00000000       0.00000000      -0.03979253
Cl       0.00000000       0.00000000       5.41212121       0.00000000       0.00000000       0.03979253
2
Properties=species:S:1:pos:R:3:forces:R:3 energy=-2.550834810494665 pbc="F F F"
Cl       0.00000000       0.00000000       0.00000000       0.00000000       0.00000000      -0.03279402
Cl       0.00000000       0.00000000       5.47090909       0.00000000       0.00000000       0.03279402
2
Properties=species:S:1:pos:R:3:forces:R:3 energy=-2.5525546399569667 pbc="F F F"
Cl       0.00000000       0.00000000       0.00000000       0.00000000       0.00000000      -0.02573191
Cl       0.00000000       0.00000000       5.52969697       0.00000000       0.00000000       0.02573191
2
Properties=species:S:1:pos:R:3:forces:R:3 energy=-2.5538649711399675 pbc="F F F"
Cl       0.00000000       0.00000000       0.00000000       0.00000000       0.00000000      -0.01891175
Cl       0.00000000       0.00000000       5.58848485       0.00000000       0.00000000       0.01891175
2
Properties=species:S:1:pos:R:3:forces:R:3 energy=-2.55479037058268 pbc="F F F"
Cl       0.00000000       0.00000000       0.00000000       0.00000000       0.00000000      -0.01269721
Cl       0.00000000       0.00000000       5.64727273       0.00000000       0.00000000       0.01269721
2
Properties=species:S:1:pos:R:3:forces:R:3 energy=-2.555376190402076 pbc="F F F"
Cl       0.00000000       0.00000000       0.00000000       0.00000000       0.00000000      -0.00743311
Cl       0.00000000       0.00000000       5.70606061       0.00000000       0.00000000       0.00743311
2
Properties=species:S:1:pos:R:3:forces:R:3 energy=-2.555688569481018 pbc="F F F"
Cl       0.00000000       0.00000000       0.00000000       0.00000000       0.00000000      -0.00336983
Cl       0.00000000       0.00000000       5.76484848       0.00000000       0.00000000       0.00336983
2
Properties=species:S:1:pos:R:3:forces:R:3 energy=-2.555799417255544 pbc="F F F"
Cl       0.00000000       0.00000000       0.00000000       0.00000000       0.00000000      -0.00062391
Cl       0.00000000       0.00000000       5.82363636       0.00000000       0.00000000       0.00062391
2
Properties=species:S:1:pos:R:3:forces:R:3 energy=-2.555785920345637 pbc="F F F"
Cl       0.00000000       0.00000000       0.00000000       0.00000000       0.00000000       0.00088586
Cl       0.00000000       0.00000000       5.88242424       0.00000000       0.00000000      -0.00088586
2
Properties=species:S:1:pos:R:3:forces:R:3 energy=-2.5557145786078577 pbc="F F F"
Cl       0.00000000       0.00000000       0.00000000       0.00000000       0.00000000       0.00142518
Cl       0.00000000       0.00000000       5.94121212       0.00000000       0.00000000      -0.00142518
2
Properties=species:S:1:pos:R:3:forces:R:3 energy=-2.555629754014945 pbc="F F F"
Cl       0.00000000       0.00000000       0.00000000       0.00000000       0.00000000       0.00142215
Cl       0.00000000       0.00000000       6.00000000       0.00000000       0.00000000      -0.00142215
