2
Properties=species:S:1:pos:R:3:forces:R:3 energy=5880454.968243264 pbc="F F F"
Co       0.00000000       0.00000000       0.00000000       0.00000000       0.00000000 -62663192.00000000
Co       0.00000000       0.00000000       0.18000000       0.00000000       0.00000000 62663192.00000000
2
Properties=species:S:1:pos:R:3:forces:R:3 energy=2786163.718243264 pbc="F F F"
Co       0.00000000       0.00000000       0.00000000       0.00000000       0.00000000 -41364284.00000000
Co       0.00000000       0.00000000       0.23878788       0.00000000       0.00000000 41364284.00000000
2
Properties=species:S:1:pos:R:3:forces:R:3 energy=1001422.0307432673 pbc="F F F"
Co       0.00000000       0.00000000       0.00000000       0.00000000       0.00000000 -20213304.00000000
Co       0.00000000       0.00000000       0.29757576       0.00000000       0.00000000 20213304.00000000
2
Properties=species:S:1:pos:R:3:forces:R:3 energy=248816.1557432672 pbc="F F F"
Co       0.00000000       0.00000000       0.00000000       0.00000000       0.00000000 -6865326.00000000
Co       0.00000000       0.00000000       0.35636364       0.00000000       0.00000000 6865326.00000000
2
Properties=species:S:1:pos:R:3:forces:R:3 energy=33720.57761827355 pbc="F F F"
Co       0.00000000       0.00000000       0.00000000       0.00000000       0.00000000 -1515635.25000000
Co       0.00000000       0.00000000       0.41515152       0.00000000       0.00000000 1515635.25000000
2
Properties=species:S:1:pos:R:3:forces:R:3 energy=-4250.563494995026 pbc="F F F"
Co       0.00000000       0.00000000       0.00000000       0.00000000       0.00000000 -128828.22656250
Co       0.00000000       0.00000000       0.47393939       0.00000000       0.00000000  128828.22656250
2
Properties=species:S:1:pos:R:3:forces:R:3 energy=-3964.267352391559 pbc="F F F"
Co       0.00000000       0.00000000       0.00000000       0.00000000       0.00000000   52614.35156250
Co       0.00000000       0.00000000       0.53272727       0.00000000       0.00000000  -52614.35156250
2
Properties=species:S:1:pos:R:3:forces:R:3 energy=-1332.3549988379202 pbc="F F F"
Co       0.00000000       0.00000000       0.00000000       0.00000000       0.00000000   27094.13476562
Co       0.00000000       0.00000000       0.59151515       0.00000000       0.00000000  -27094.13476562
2
Properties=species:S:1:pos:R:3:forces:R:3 energy=-361.7827026256501 pbc="F F F"
Co       0.00000000       0.00000000       0.00000000       0.00000000       0.00000000    7926.45556641
Co       0.00000000       0.00000000       0.65030303       0.00000000       0.00000000   -7926.45556641
2
Properties=species:S:1:pos:R:3:forces:R:3 energy=-92.8640471256041 pbc="F F F"
Co       0.00000000       0.00000000       0.00000000       0.00000000       0.00000000    2522.62109375
Co       0.00000000       0.00000000       0.70909091       0.00000000       0.00000000   -2522.62109375
2
Properties=species:S:1:pos:R:3:forces:R:3 energy=-23.58220377862037 pbc="F F F"
Co       0.00000000       0.00000000       0.00000000       0.00000000       0.00000000     313.40997314
Co       0.00000000       0.00000000       0.76787879       0.00000000       0.00000000    -313.40997314
2
Properties=species:S:1:pos:R:3:forces:R:3 energy=-14.312941227190938 pbc="F F F"
Co       0.00000000       0.00000000       0.00000000       0.00000000       0.00000000      69.82403564
Co       0.00000000       0.00000000       0.82666667       0.00000000       0.00000000     -69.82403564
2
Properties=species:S:1:pos:R:3:forces:R:3 energy=-11.626262952326888 pbc="F F F"
Co       0.00000000       0.00000000       0.00000000       0.00000000       0.00000000      40.51490402
Co       0.00000000       0.00000000       0.88545455       0.00000000       0.00000000     -40.51490402
2
Properties=species:S:1:pos:R:3:forces:R:3 energy=-9.043866920396876 pbc="F F F"
Co       0.00000000       0.00000000       0.00000000       0.00000000       0.00000000      45.85308838
Co       0.00000000       0.00000000       0.94424242       0.00000000       0.00000000     -45.85308838
2
Properties=species:S:1:pos:R:3:forces:R:3 energy=-6.433116063125612 pbc="F F F"
Co       0.00000000       0.00000000       0.00000000       0.00000000       0.00000000      44.94069672
Co       0.00000000       0.00000000       1.00303030       0.00000000       0.00000000     -44.94069672
2
Properties=species:S:1:pos:R:3:forces:R:3 energy=-3.706369093829503 pbc="F F F"
Co       0.00000000       0.00000000       0.00000000       0.00000000       0.00000000      45.78901291
Co       0.00000000       0.00000000       1.06181818       0.00000000       0.00000000     -45.78901291
2
Properties=species:S:1:pos:R:3:forces:R:3 energy=-1.2907666618901426 pbc="F F F"
Co       0.00000000       0.00000000       0.00000000       0.00000000       0.00000000      31.46366310
Co       0.00000000       0.00000000       1.12060606       0.00000000       0.00000000     -31.46366310
2
Properties=species:S:1:pos:R:3:forces:R:3 energy=-0.18824131544981892 pbc="F F F"
Co       0.00000000       0.00000000       0.00000000       0.00000000       0.00000000       6.96942043
Co       0.00000000       0.00000000       1.17939394       0.00000000       0.00000000      -6.96942043
2
Properties=species:S:1:pos:R:3:forces:R:3 energy=-0.3633510903517485 pbc="F F F"
Co       0.00000000       0.00000000       0.00000000       0.00000000       0.00000000     -14.70009995
Co       0.00000000       0.00000000       1.23818182       0.00000000       0.00000000      14.70009995
2
Properties=species:S:1:pos:R:3:forces:R:3 energy=-1.3150001102682496 pbc="F F F"
Co       0.00000000       0.00000000       0.00000000       0.00000000       0.00000000     -16.15036964
Co       0.00000000       0.00000000       1.29696970       0.00000000       0.00000000      16.15036964
2
Properties=species:S:1:pos:R:3:forces:R:3 energy=-2.21274965676959 pbc="F F F"
Co       0.00000000       0.00000000       0.00000000       0.00000000       0.00000000     -14.44184399
Co       0.00000000       0.00000000       1.35575758       0.00000000       0.00000000      14.44184399
2
Properties=species:S:1:pos:R:3:forces:R:3 energy=-3.036247226885169 pbc="F F F"
Co       0.00000000       0.00000000       0.00000000       0.00000000       0.00000000     -13.32366276
Co       0.00000000       0.00000000       1.41454545       0.00000000       0.00000000      13.32366276
2
Properties=species:S:1:pos:R:3:forces:R:3 energy=-3.735617450341797 pbc="F F F"
Co       0.00000000       0.00000000       0.00000000       0.00000000       0.00000000     -10.28914356
Co       0.00000000       0.00000000       1.47333333       0.00000000       0.00000000      10.28914356
2
Properties=species:S:1:pos:R:3:forces:R:3 energy=-4.2651396802073975 pbc="F F F"
Co       0.00000000       0.00000000       0.00000000       0.00000000       0.00000000      -8.04092026
Co       0.00000000       0.00000000       1.53212121       0.00000000       0.00000000       8.04092026
2
Properties=species:S:1:pos:R:3:forces:R:3 energy=-4.69981903431229 pbc="F F F"
Co       0.00000000       0.00000000       0.00000000       0.00000000       0.00000000      -6.88389254
Co       0.00000000       0.00000000       1.59090909       0.00000000       0.00000000       6.88389254
2
Properties=species:S:1:pos:R:3:forces:R:3 energy=-5.089893096940199 pbc="F F F"
Co       0.00000000       0.00000000       0.00000000       0.00000000       0.00000000      -6.41031075
Co       0.00000000       0.00000000       1.64969697       0.00000000       0.00000000       6.41031075
2
Properties=species:S:1:pos:R:3:forces:R:3 energy=-5.4577242173489475 pbc="F F F"
Co       0.00000000       0.00000000       0.00000000       0.00000000       0.00000000      -6.08878660
Co       0.00000000       0.00000000       1.70848485       0.00000000       0.00000000       6.08878660
2
Properties=species:S:1:pos:R:3:forces:R:3 energy=-5.797926543195671 pbc="F F F"
Co       0.00000000       0.00000000       0.00000000       0.00000000       0.00000000      -5.48970795
Co       0.00000000       0.00000000       1.76727273       0.00000000       0.00000000       5.48970795
2
Properties=species:S:1:pos:R:3:forces:R:3 energy=-6.116473892766913 pbc="F F F"
Co       0.00000000       0.00000000       0.00000000       0.00000000       0.00000000      -5.27577448
Co       0.00000000       0.00000000       1.82606061       0.00000000       0.00000000       5.27577448
2
Properties=species:S:1:pos:R:3:forces:R:3 energy=-6.397659631939291 pbc="F F F"
Co       0.00000000       0.00000000       0.00000000       0.00000000       0.00000000      -4.33715153
Co       0.00000000       0.00000000       1.88484848       0.00000000       0.00000000       4.33715153
2
Properties=species:S:1:pos:R:3:forces:R:3 energy=-6.6255142883299865 pbc="F F F"
Co       0.00000000       0.00000000       0.00000000       0.00000000       0.00000000      -3.32583904
Co       0.00000000       0.00000000       1.94363636       0.00000000       0.00000000       3.32583904
2
Properties=species:S:1:pos:R:3:forces:R:3 energy=-6.786587109535857 pbc="F F F"
Co       0.00000000       0.00000000       0.00000000       0.00000000       0.00000000      -2.17049050
Co       0.00000000       0.00000000       2.00242424       0.00000000       0.00000000       2.17049050
2
Properties=species:S:1:pos:R:3:forces:R:3 energy=-6.879978286183564 pbc="F F F"
Co       0.00000000       0.00000000       0.00000000       0.00000000       0.00000000      -0.99971431
Co       0.00000000       0.00000000       2.06121212       0.00000000       0.00000000       0.99971431
2
Properties=species:S:1:pos:R:3:forces:R:3 energy=-6.908473448550978 pbc="F F F"
Co       0.00000000       0.00000000       0.00000000       0.00000000       0.00000000      -0.02567698
Co       0.00000000       0.00000000       2.12000000       0.00000000       0.00000000       0.02567698
2
Properties=species:S:1:pos:R:3:forces:R:3 energy=-6.889393860760307 pbc="F F F"
Co       0.00000000       0.00000000       0.00000000       0.00000000       0.00000000       0.62129927
Co       0.00000000       0.00000000       2.17878788       0.00000000       0.00000000      -0.62129927
2
Properties=species:S:1:pos:R:3:forces:R:3 energy=-6.839401444869845 pbc="F F F"
Co       0.00000000       0.00000000       0.00000000       0.00000000       0.00000000       1.05584443
Co       0.00000000       0.00000000       2.23757576       0.00000000       0.00000000      -1.05584443
2
Properties=species:S:1:pos:R:3:forces:R:3 energy=-6.770089587685219 pbc="F F F"
Co       0.00000000       0.00000000       0.00000000       0.00000000       0.00000000       1.25276542
Co       0.00000000       0.00000000       2.29636364       0.00000000       0.00000000      -1.25276542
2
Properties=species:S:1:pos:R:3:forces:R:3 energy=-6.696334671943657 pbc="F F F"
Co       0.00000000       0.00000000       0.00000000       0.00000000       0.00000000       1.23842967
Co       0.00000000       0.00000000       2.35515152       0.00000000       0.00000000      -1.23842967
2
Properties=species:S:1:pos:R:3:forces:R:3 energy=-6.624791277545004 pbc="F F F"
Co       0.00000000       0.00000000       0.00000000       0.00000000       0.00000000       1.20215952
Co       0.00000000       0.00000000       2.41393939       0.00000000       0.00000000      -1.20215952
2
Properties=species:S:1:pos:R:3:forces:R:3 energy=-6.554484707689784 pbc="F F F"
Co       0.00000000       0.00000000       0.00000000       0.00000000       0.00000000       1.18868828
Co       0.00000000       0.00000000       2.47272727       0.00000000       0.00000000      -1.18868828
2
Properties=species:S:1:pos:R:3:forces:R:3 energy=-6.485108612428116 pbc="F F F"
Co       0.00000000       0.00000000       0.00000000       0.00000000       0.00000000       1.17400301
Co       0.00000000       0.00000000       2.53151515       0.00000000       0.00000000      -1.17400301
2
Properties=species:S:1:pos:R:3:forces:R:3 energy=-6.416381367035963 pbc="F F F"
Co       0.00000000       0.00000000       0.00000000       0.00000000       0.00000000       1.15963042
Co       0.00000000       0.00000000       2.59030303       0.00000000       0.00000000      -1.15963042
2
Properties=species:S:1:pos:R:3:forces:R:3 energy=-6.349583583552264 pbc="F F F"
Co       0.00000000       0.00000000       0.00000000       0.00000000       0.00000000       1.10681581
Co       0.00000000       0.00000000       2.64909091       0.00000000       0.00000000      -1.10681581
2
Properties=species:S:1:pos:R:3:forces:R:3 energy=-6.286637980945388 pbc="F F F"
Co       0.00000000       0.00000000       0.00000000       0.00000000       0.00000000       1.03352737
Co       0.00000000       0.00000000       2.70787879       0.00000000       0.00000000      -1.03352737
2
Properties=species:S:1:pos:R:3:forces:R:3 energy=-6.228023118436437 pbc="F F F"
Co       0.00000000       0.00000000       0.00000000       0.00000000       0.00000000       0.96241033
Co       0.00000000       0.00000000       2.76666667       0.00000000       0.00000000      -0.96241033
2
Properties=species:S:1:pos:R:3:forces:R:3 energy=-6.173093777020361 pbc="F F F"
Co       0.00000000       0.00000000       0.00000000       0.00000000       0.00000000       0.91050231
Co       0.00000000       0.00000000       2.82545455       0.00000000       0.00000000      -0.91050231
2
Properties=species:S:1:pos:R:3:forces:R:3 energy=-6.120522098717455 pbc="F F F"
Co       0.00000000       0.00000000       0.00000000       0.00000000       0.00000000       0.88079071
Co       0.00000000       0.00000000       2.88424242       0.00000000       0.00000000      -0.88079071
2
Properties=species:S:1:pos:R:3:forces:R:3 energy=-6.0693369980977 pbc="F F F"
Co       0.00000000       0.00000000       0.00000000       0.00000000       0.00000000       0.86147195
Co       0.00000000       0.00000000       2.94303030       0.00000000       0.00000000      -0.86147195
2
Properties=species:S:1:pos:R:3:forces:R:3 energy=-6.019164029295486 pbc="F F F"
Co       0.00000000       0.00000000       0.00000000       0.00000000       0.00000000       0.84595126
Co       0.00000000       0.00000000       3.00181818       0.00000000       0.00000000      -0.84595126
2
Properties=species:S:1:pos:R:3:forces:R:3 energy=-5.969831402876838 pbc="F F F"
Co       0.00000000       0.00000000       0.00000000       0.00000000       0.00000000       0.83229136
Co       0.00000000       0.00000000       3.06060606       0.00000000       0.00000000      -0.83229136
2
Properties=species:S:1:pos:R:3:forces:R:3 energy=-5.921377949039557 pbc="F F F"
Co       0.00000000       0.00000000       0.00000000       0.00000000       0.00000000       0.81512511
Co       0.00000000       0.00000000       3.11939394       0.00000000       0.00000000      -0.81512511
2
Properties=species:S:1:pos:R:3:forces:R:3 energy=-5.8741344887128575 pbc="F F F"
Co       0.00000000       0.00000000       0.00000000       0.00000000       0.00000000       0.79098487
Co       0.00000000       0.00000000       3.17818182       0.00000000       0.00000000      -0.79098487
2
Properties=species:S:1:pos:R:3:forces:R:3 energy=-5.828492508850995 pbc="F F F"
Co       0.00000000       0.00000000       0.00000000       0.00000000       0.00000000       0.76090896
Co       0.00000000       0.00000000       3.23696970       0.00000000       0.00000000      -0.76090896
2
Properties=species:S:1:pos:R:3:forces:R:3 energy=-5.7847945469076825 pbc="F F F"
Co       0.00000000       0.00000000       0.00000000       0.00000000       0.00000000       0.72445184
Co       0.00000000       0.00000000       3.29575758       0.00000000       0.00000000      -0.72445184
2
Properties=species:S:1:pos:R:3:forces:R:3 energy=-5.743480757241699 pbc="F F F"
Co       0.00000000       0.00000000       0.00000000       0.00000000       0.00000000       0.67956060
Co       0.00000000       0.00000000       3.35454545       0.00000000       0.00000000      -0.67956060
2
Properties=species:S:1:pos:R:3:forces:R:3 energy=-5.705055233076696 pbc="F F F"
Co       0.00000000       0.00000000       0.00000000       0.00000000       0.00000000       0.62656045
Co       0.00000000       0.00000000       3.41333333       0.00000000       0.00000000      -0.62656045
2
Properties=species:S:1:pos:R:3:forces:R:3 energy=-5.669905717705889 pbc="F F F"
Co       0.00000000       0.00000000       0.00000000       0.00000000       0.00000000       0.56886852
Co       0.00000000       0.00000000       3.47212121       0.00000000       0.00000000      -0.56886852
2
Properties=species:S:1:pos:R:3:forces:R:3 energy=-5.638175983196052 pbc="F F F"
Co       0.00000000       0.00000000       0.00000000       0.00000000       0.00000000       0.51077038
Co       0.00000000       0.00000000       3.53090909       0.00000000       0.00000000      -0.51077038
2
Properties=species:S:1:pos:R:3:forces:R:3 energy=-5.60979831867072 pbc="F F F"
Co       0.00000000       0.00000000       0.00000000       0.00000000       0.00000000       0.45526421
Co       0.00000000       0.00000000       3.58969697       0.00000000       0.00000000      -0.45526421
2
Properties=species:S:1:pos:R:3:forces:R:3 energy=-5.584574229831522 pbc="F F F"
Co       0.00000000       0.00000000       0.00000000       0.00000000       0.00000000       0.40350658
Co       0.00000000       0.00000000       3.64848485       0.00000000       0.00000000      -0.40350658
2
Properties=species:S:1:pos:R:3:forces:R:3 energy=-5.562281727318779 pbc="F F F"
Co       0.00000000       0.00000000       0.00000000       0.00000000       0.00000000       0.35554367
Co       0.00000000       0.00000000       3.70727273       0.00000000       0.00000000      -0.35554367
2
Properties=species:S:1:pos:R:3:forces:R:3 energy=-5.542699746776877 pbc="F F F"
Co       0.00000000       0.00000000       0.00000000       0.00000000       0.00000000       0.31122881
Co       0.00000000       0.00000000       3.76606061       0.00000000       0.00000000      -0.31122881
2
Properties=species:S:1:pos:R:3:forces:R:3 energy=-5.525614875259638 pbc="F F F"
Co       0.00000000       0.00000000       0.00000000       0.00000000       0.00000000       0.27064106
Co       0.00000000       0.00000000       3.82484848       0.00000000       0.00000000      -0.27064106
2
Properties=species:S:1:pos:R:3:forces:R:3 energy=-5.510801648851375 pbc="F F F"
Co       0.00000000       0.00000000       0.00000000       0.00000000       0.00000000       0.23400119
Co       0.00000000       0.00000000       3.88363636       0.00000000       0.00000000      -0.23400119
2
Properties=species:S:1:pos:R:3:forces:R:3 energy=-5.498023200566438 pbc="F F F"
Co       0.00000000       0.00000000       0.00000000       0.00000000       0.00000000       0.20141736
Co       0.00000000       0.00000000       3.94242424       0.00000000       0.00000000      -0.20141736
2
Properties=species:S:1:pos:R:3:forces:R:3 energy=-5.487043963890095 pbc="F F F"
Co       0.00000000       0.00000000       0.00000000       0.00000000       0.00000000       0.17272188
Co       0.00000000       0.00000000       4.00121212       0.00000000       0.00000000      -0.17272188
2
Properties=species:S:1:pos:R:3:forces:R:3 energy=-5.477645777535957 pbc="F F F"
Co       0.00000000       0.00000000       0.00000000       0.00000000       0.00000000       0.14752029
Co       0.00000000       0.00000000       4.06000000       0.00000000       0.00000000      -0.14752029
2
Properties=species:S:1:pos:R:3:forces:R:3 energy=-5.469638840029328 pbc="F F F"
Co       0.00000000       0.00000000       0.00000000       0.00000000       0.00000000       0.12537085
Co       0.00000000       0.00000000       4.11878788       0.00000000       0.00000000      -0.12537085
2
Properties=species:S:1:pos:R:3:forces:R:3 energy=-5.462852879548226 pbc="F F F"
Co       0.00000000       0.00000000       0.00000000       0.00000000       0.00000000       0.10593937
Co       0.00000000       0.00000000       4.17757576       0.00000000       0.00000000      -0.10593937
2
Properties=species:S:1:pos:R:3:forces:R:3 energy=-5.457134210537067 pbc="F F F"
Co       0.00000000       0.00000000       0.00000000       0.00000000       0.00000000       0.08904219
Co       0.00000000       0.00000000       4.23636364       0.00000000       0.00000000      -0.08904219
2
Properties=species:S:1:pos:R:3:forces:R:3 energy=-5.45233497085647 pbc="F F F"
Co       0.00000000       0.00000000       0.00000000       0.00000000       0.00000000       0.07458082
Co       0.00000000       0.00000000       4.29515152       0.00000000       0.00000000      -0.07458082
2
Properties=species:S:1:pos:R:3:forces:R:3 energy=-5.448318913521248 pbc="F F F"
Co       0.00000000       0.00000000       0.00000000       0.00000000       0.00000000       0.06244167
Co       0.00000000       0.00000000       4.35393939       0.00000000       0.00000000      -0.06244167
2
Properties=species:S:1:pos:R:3:forces:R:3 energy=-5.444953283125622 pbc="F F F"
Co       0.00000000       0.00000000       0.00000000       0.00000000       0.00000000       0.05242823
Co       0.00000000       0.00000000       4.41272727       0.00000000       0.00000000      -0.05242823
2
Properties=species:S:1:pos:R:3:forces:R:3 energy=-5.44211935377803 pbc="F F F"
Co       0.00000000       0.00000000       0.00000000       0.00000000       0.00000000       0.04425666
Co       0.00000000       0.00000000       4.47151515       0.00000000       0.00000000      -0.04425666
2
Properties=species:S:1:pos:R:3:forces:R:3 energy=-5.439718479096545 pbc="F F F"
Co       0.00000000       0.00000000       0.00000000       0.00000000       0.00000000       0.03759843
Co       0.00000000       0.00000000       4.53030303       0.00000000       0.00000000      -0.03759843
2
Properties=species:S:1:pos:R:3:forces:R:3 energy=-5.4376752209927215 pbc="F F F"
Co       0.00000000       0.00000000       0.00000000       0.00000000       0.00000000       0.03214013
Co       0.00000000       0.00000000       4.58909091       0.00000000       0.00000000      -0.03214013
2
Properties=species:S:1:pos:R:3:forces:R:3 energy=-5.435921582367153 pbc="F F F"
Co       0.00000000       0.00000000       0.00000000       0.00000000       0.00000000       0.02762875
Co       0.00000000       0.00000000       4.64787879       0.00000000       0.00000000      -0.02762875
2
Properties=species:S:1:pos:R:3:forces:R:3 energy=-5.434410772030616 pbc="F F F"
Co       0.00000000       0.00000000       0.00000000       0.00000000       0.00000000       0.02388783
Co       0.00000000       0.00000000       4.70666667       0.00000000       0.00000000      -0.02388783
2
Properties=species:S:1:pos:R:3:forces:R:3 energy=-5.433099460358906 pbc="F F F"
Co       0.00000000       0.00000000       0.00000000       0.00000000       0.00000000       0.02081082
Co       0.00000000       0.00000000       4.76545455       0.00000000       0.00000000      -0.02081082
2
Properties=species:S:1:pos:R:3:forces:R:3 energy=-5.431951657346551 pbc="F F F"
Co       0.00000000       0.00000000       0.00000000       0.00000000       0.00000000       0.01834102
Co       0.00000000       0.00000000       4.82424242       0.00000000       0.00000000      -0.01834102
2
Properties=species:S:1:pos:R:3:forces:R:3 energy=-5.430932491548996 pbc="F F F"
Co       0.00000000       0.00000000       0.00000000       0.00000000       0.00000000       0.01645200
Co       0.00000000       0.00000000       4.88303030       0.00000000       0.00000000      -0.01645200
2
Properties=species:S:1:pos:R:3:forces:R:3 energy=-5.430006773235483 pbc="F F F"
Co       0.00000000       0.00000000       0.00000000       0.00000000       0.00000000       0.01513074
Co       0.00000000       0.00000000       4.94181818       0.00000000       0.00000000      -0.01513074
2
Properties=species:S:1:pos:R:3:forces:R:3 energy=-5.429142866107122 pbc="F F F"
Co       0.00000000       0.00000000       0.00000000       0.00000000       0.00000000       0.01436199
Co       0.00000000       0.00000000       5.00060606       0.00000000       0.00000000      -0.01436199
2
Properties=species:S:1:pos:R:3:forces:R:3 energy=-5.428307085628223 pbc="F F F"
Co       0.00000000       0.00000000       0.00000000       0.00000000       0.00000000       0.01411342
Co       0.00000000       0.00000000       5.05939394       0.00000000       0.00000000      -0.01411342
2
Properties=species:S:1:pos:R:3:forces:R:3 energy=-5.427474148262102 pbc="F F F"
Co       0.00000000       0.00000000       0.00000000       0.00000000       0.00000000       0.01431981
Co       0.00000000       0.00000000       5.11818182       0.00000000       0.00000000      -0.01431981
2
Properties=species:S:1:pos:R:3:forces:R:3 energy=-5.426616340432783 pbc="F F F"
Co       0.00000000       0.00000000       0.00000000       0.00000000       0.00000000       0.01487306
Co       0.00000000       0.00000000       5.17696970       0.00000000       0.00000000      -0.01487306
2
Properties=species:S:1:pos:R:3:forces:R:3 energy=-5.425721692189994 pbc="F F F"
Co       0.00000000       0.00000000       0.00000000       0.00000000       0.00000000       0.01562278
Co       0.00000000       0.00000000       5.23575758       0.00000000       0.00000000      -0.01562278
2
Properties=species:S:1:pos:R:3:forces:R:3 energy=-5.424780689125173 pbc="F F F"
Co       0.00000000       0.00000000       0.00000000       0.00000000       0.00000000       0.01639063
Co       0.00000000       0.00000000       5.29454545       0.00000000       0.00000000      -0.01639063
2
Properties=species:S:1:pos:R:3:forces:R:3 energy=-5.423797329909048 pbc="F F F"
Co       0.00000000       0.00000000       0.00000000       0.00000000       0.00000000       0.01699771
Co       0.00000000       0.00000000       5.35333333       0.00000000       0.00000000      -0.01699771
2
Properties=species:S:1:pos:R:3:forces:R:3 energy=-5.42278818687251 pbc="F F F"
Co       0.00000000       0.00000000       0.00000000       0.00000000       0.00000000       0.01729609
Co       0.00000000       0.00000000       5.41212121       0.00000000       0.00000000      -0.01729609
2
Properties=species:S:1:pos:R:3:forces:R:3 energy=-5.421772495380516 pbc="F F F"
Co       0.00000000       0.00000000       0.00000000       0.00000000       0.00000000       0.01719738
Co       0.00000000       0.00000000       5.47090909       0.00000000       0.00000000      -0.01719738
2
Properties=species:S:1:pos:R:3:forces:R:3 energy=-5.420774092858944 pbc="F F F"
Co       0.00000000       0.00000000       0.00000000       0.00000000       0.00000000       0.01668645
Co       0.00000000       0.00000000       5.52969697       0.00000000       0.00000000      -0.01668645
2
Properties=species:S:1:pos:R:3:forces:R:3 energy=-5.419816682101229 pbc="F F F"
Co       0.00000000       0.00000000       0.00000000       0.00000000       0.00000000       0.01581979
Co       0.00000000       0.00000000       5.58848485       0.00000000       0.00000000      -0.01581979
2
Properties=species:S:1:pos:R:3:forces:R:3 energy=-5.418919151595802 pbc="F F F"
Co       0.00000000       0.00000000       0.00000000       0.00000000       0.00000000       0.01470801
Co       0.00000000       0.00000000       5.64727273       0.00000000       0.00000000      -0.01470801
2
Properties=species:S:1:pos:R:3:forces:R:3 energy=-5.418089355260238 pbc="F F F"
Co       0.00000000       0.00000000       0.00000000       0.00000000       0.00000000       0.01348842
Co       0.00000000       0.00000000       5.70606061       0.00000000       0.00000000      -0.01348842
2
Properties=species:S:1:pos:R:3:forces:R:3 energy=-5.417331785393334 pbc="F F F"
Co       0.00000000       0.00000000       0.00000000       0.00000000       0.00000000       0.01229353
Co       0.00000000       0.00000000       5.76484848       0.00000000       0.00000000      -0.01229353
2
Properties=species:S:1:pos:R:3:forces:R:3 energy=-5.416642397158465 pbc="F F F"
Co       0.00000000       0.00000000       0.00000000       0.00000000       0.00000000       0.01122631
Co       0.00000000       0.00000000       5.82363636       0.00000000       0.00000000      -0.01122631
2
Properties=species:S:1:pos:R:3:forces:R:3 energy=-5.416008560274289 pbc="F F F"
Co       0.00000000       0.00000000       0.00000000       0.00000000       0.00000000       0.01033903
Co       0.00000000       0.00000000       5.88242424       0.00000000       0.00000000      -0.01033903
2
Properties=species:S:1:pos:R:3:forces:R:3 energy=-5.415422465100111 pbc="F F F"
Co       0.00000000       0.00000000       0.00000000       0.00000000       0.00000000       0.00962751
Co       0.00000000       0.00000000       5.94121212       0.00000000       0.00000000      -0.00962751
2
Properties=species:S:1:pos:R:3:forces:R:3 energy=-5.41487446117087 pbc="F F F"
Co       0.00000000       0.00000000       0.00000000       0.00000000       0.00000000       0.00903741
Co       0.00000000       0.00000000       6.00000000       0.00000000       0.00000000      -0.00903741
