2
Properties=species:S:1:pos:R:3:forces:R:3 energy=-560.6567562766102 pbc="F F F"
Cu       0.00000000       0.00000000       0.00000000       0.00000000       0.00000000    4975.43603516
Cu       0.00000000       0.00000000       0.18000000       0.00000000       0.00000000   -4975.43603516
2
Properties=species:S:1:pos:R:3:forces:R:3 energy=-300.9009579367664 pbc="F F F"
Cu       0.00000000       0.00000000       0.00000000       0.00000000       0.00000000    3706.68969727
Cu       0.00000000       0.00000000       0.23878788       0.00000000       0.00000000   -3706.68969727
2
Properties=species:S:1:pos:R:3:forces:R:3 energy=-129.61346708887206 pbc="F F F"
Cu       0.00000000       0.00000000       0.00000000       0.00000000       0.00000000    2150.69067383
Cu       0.00000000       0.00000000       0.29757576       0.00000000       0.00000000   -2150.69067383
2
Properties=species:S:1:pos:R:3:forces:R:3 energy=-40.91242872827635 pbc="F F F"
Cu       0.00000000       0.00000000       0.00000000       0.00000000       0.00000000     936.60455322
Cu       0.00000000       0.00000000       0.35636364       0.00000000       0.00000000    -936.60455322
2
Properties=species:S:1:pos:R:3:forces:R:3 energy=-5.048716411149691 pbc="F F F"
Cu       0.00000000       0.00000000       0.00000000       0.00000000       0.00000000     356.45059204
Cu       0.00000000       0.00000000       0.41515152       0.00000000       0.00000000    -356.45059204
2
Properties=species:S:1:pos:R:3:forces:R:3 energy=7.4786845719805815 pbc="F F F"
Cu       0.00000000       0.00000000       0.00000000       0.00000000       0.00000000     122.36875153
Cu       0.00000000       0.00000000       0.47393939       0.00000000       0.00000000    -122.36875153
2
Properties=species:S:1:pos:R:3:forces:R:3 energy=11.838190250704507 pbc="F F F"
Cu       0.00000000       0.00000000       0.00000000       0.00000000       0.00000000      23.67096519
Cu       0.00000000       0.00000000       0.53272727       0.00000000       0.00000000     -23.67096519
2
Properties=species:S:1:pos:R:3:forces:R:3 energy=11.877989025290638 pbc="F F F"
Cu       0.00000000       0.00000000       0.00000000       0.00000000       0.00000000     130.08282471
Cu       0.00000000       0.00000000       0.59151515       0.00000000       0.00000000    -130.08282471
2
Properties=species:S:1:pos:R:3:forces:R:3 energy=15.54949406934796 pbc="F F F"
Cu       0.00000000       0.00000000       0.00000000       0.00000000       0.00000000      32.39057159
Cu       0.00000000       0.00000000       0.65030303       0.00000000       0.00000000     -32.39057159
2
Properties=species:S:1:pos:R:3:forces:R:3 energy=21.58273448901661 pbc="F F F"
Cu       0.00000000       0.00000000       0.00000000       0.00000000       0.00000000     153.39204407
Cu       0.00000000       0.00000000       0.70909091       0.00000000       0.00000000    -153.39204407
2
Properties=species:S:1:pos:R:3:forces:R:3 energy=27.13395840862617 pbc="F F F"
Cu       0.00000000       0.00000000       0.00000000       0.00000000       0.00000000      -4.17853451
Cu       0.00000000       0.00000000       0.76787879       0.00000000       0.00000000       4.17853451
2
Properties=species:S:1:pos:R:3:forces:R:3 energy=23.61737615403134 pbc="F F F"
Cu       0.00000000       0.00000000       0.00000000       0.00000000       0.00000000     -84.88427734
Cu       0.00000000       0.00000000       0.82666667       0.00000000       0.00000000      84.88427734
2
Properties=species:S:1:pos:R:3:forces:R:3 energy=19.426004572095877 pbc="F F F"
Cu       0.00000000       0.00000000       0.00000000       0.00000000       0.00000000     -56.59119797
Cu       0.00000000       0.00000000       0.88545455       0.00000000       0.00000000      56.59119797
2
Properties=species:S:1:pos:R:3:forces:R:3 energy=16.469885513083508 pbc="F F F"
Cu       0.00000000       0.00000000       0.00000000       0.00000000       0.00000000     -50.74118805
Cu       0.00000000       0.00000000       0.94424242       0.00000000       0.00000000      50.74118805
2
Properties=species:S:1:pos:R:3:forces:R:3 energy=13.425314285961168 pbc="F F F"
Cu       0.00000000       0.00000000       0.00000000       0.00000000       0.00000000     -48.38143921
Cu       0.00000000       0.00000000       1.00303030       0.00000000       0.00000000      48.38143921
2
Properties=species:S:1:pos:R:3:forces:R:3 energy=10.859326629134133 pbc="F F F"
Cu       0.00000000       0.00000000       0.00000000       0.00000000       0.00000000     -39.80244064
Cu       0.00000000       0.00000000       1.06181818       0.00000000       0.00000000      39.80244064
2
Properties=species:S:1:pos:R:3:forces:R:3 energy=8.588690285853474 pbc="F F F"
Cu       0.00000000       0.00000000       0.00000000       0.00000000       0.00000000     -41.94448471
Cu       0.00000000       0.00000000       1.12060606       0.00000000       0.00000000      41.94448471
2
Properties=species:S:1:pos:R:3:forces:R:3 energy=6.219911682970996 pbc="F F F"
Cu       0.00000000       0.00000000       0.00000000       0.00000000       0.00000000     -35.46530914
Cu       0.00000000       0.00000000       1.17939394       0.00000000       0.00000000      35.46530914
2
Properties=species:S:1:pos:R:3:forces:R:3 energy=4.338650886791821 pbc="F F F"
Cu       0.00000000       0.00000000       0.00000000       0.00000000       0.00000000     -30.80381966
Cu       0.00000000       0.00000000       1.23818182       0.00000000       0.00000000      30.80381966
2
Properties=species:S:1:pos:R:3:forces:R:3 energy=2.749162530546609 pbc="F F F"
Cu       0.00000000       0.00000000       0.00000000       0.00000000       0.00000000     -23.37201309
Cu       0.00000000       0.00000000       1.29696970       0.00000000       0.00000000      23.37201309
2
Properties=species:S:1:pos:R:3:forces:R:3 energy=1.566020213311334 pbc="F F F"
Cu       0.00000000       0.00000000       0.00000000       0.00000000       0.00000000     -17.36848640
Cu       0.00000000       0.00000000       1.35575758       0.00000000       0.00000000      17.36848640
2
Properties=species:S:1:pos:R:3:forces:R:3 energy=0.6441787876779816 pbc="F F F"
Cu       0.00000000       0.00000000       0.00000000       0.00000000       0.00000000     -13.81411362
Cu       0.00000000       0.00000000       1.41454545       0.00000000       0.00000000      13.81411362
2
Properties=species:S:1:pos:R:3:forces:R:3 energy=-0.03145156399954727 pbc="F F F"
Cu       0.00000000       0.00000000       0.00000000       0.00000000       0.00000000      -9.50199795
Cu       0.00000000       0.00000000       1.47333333       0.00000000       0.00000000       9.50199795
2
Properties=species:S:1:pos:R:3:forces:R:3 energy=-0.5345153087203806 pbc="F F F"
Cu       0.00000000       0.00000000       0.00000000       0.00000000       0.00000000      -7.80124950
Cu       0.00000000       0.00000000       1.53212121       0.00000000       0.00000000       7.80124950
2
Properties=species:S:1:pos:R:3:forces:R:3 energy=-0.9446974549255414 pbc="F F F"
Cu       0.00000000       0.00000000       0.00000000       0.00000000       0.00000000      -6.21250439
Cu       0.00000000       0.00000000       1.59090909       0.00000000       0.00000000       6.21250439
2
Properties=species:S:1:pos:R:3:forces:R:3 energy=-1.2821374719135241 pbc="F F F"
Cu       0.00000000       0.00000000       0.00000000       0.00000000       0.00000000      -5.33438396
Cu       0.00000000       0.00000000       1.64969697       0.00000000       0.00000000       5.33438396
2
Properties=species:S:1:pos:R:3:forces:R:3 energy=-1.5799557764440542 pbc="F F F"
Cu       0.00000000       0.00000000       0.00000000       0.00000000       0.00000000      -4.85247803
Cu       0.00000000       0.00000000       1.70848485       0.00000000       0.00000000       4.85247803
2
Properties=species:S:1:pos:R:3:forces:R:3 energy=-1.8575026944935544 pbc="F F F"
Cu       0.00000000       0.00000000       0.00000000       0.00000000       0.00000000      -4.65650797
Cu       0.00000000       0.00000000       1.76727273       0.00000000       0.00000000       4.65650797
2
Properties=species:S:1:pos:R:3:forces:R:3 energy=-2.1387787060191115 pbc="F F F"
Cu       0.00000000       0.00000000       0.00000000       0.00000000       0.00000000      -4.90323639
Cu       0.00000000       0.00000000       1.82606061       0.00000000       0.00000000       4.90323639
2
Properties=species:S:1:pos:R:3:forces:R:3 energy=-2.4141149744603743 pbc="F F F"
Cu       0.00000000       0.00000000       0.00000000       0.00000000       0.00000000      -4.43066835
Cu       0.00000000       0.00000000       1.88484848       0.00000000       0.00000000       4.43066835
2
Properties=species:S:1:pos:R:3:forces:R:3 energy=-2.65477866532278 pbc="F F F"
Cu       0.00000000       0.00000000       0.00000000       0.00000000       0.00000000      -3.67545438
Cu       0.00000000       0.00000000       1.94363636       0.00000000       0.00000000       3.67545438
2
Properties=species:S:1:pos:R:3:forces:R:3 energy=-2.8456097977098715 pbc="F F F"
Cu       0.00000000       0.00000000       0.00000000       0.00000000       0.00000000      -2.85645008
Cu       0.00000000       0.00000000       2.00242424       0.00000000       0.00000000       2.85645008
2
Properties=species:S:1:pos:R:3:forces:R:3 energy=-2.9914624073417193 pbc="F F F"
Cu       0.00000000       0.00000000       0.00000000       0.00000000       0.00000000      -2.08900094
Cu       0.00000000       0.00000000       2.06121212       0.00000000       0.00000000       2.08900094
2
Properties=species:S:1:pos:R:3:forces:R:3 energy=-3.0908294198858877 pbc="F F F"
Cu       0.00000000       0.00000000       0.00000000       0.00000000       0.00000000      -1.28802156
Cu       0.00000000       0.00000000       2.12000000       0.00000000       0.00000000       1.28802156
2
Properties=species:S:1:pos:R:3:forces:R:3 energy=-3.1433086652457063 pbc="F F F"
Cu       0.00000000       0.00000000       0.00000000       0.00000000       0.00000000      -0.52624840
Cu       0.00000000       0.00000000       2.17878788       0.00000000       0.00000000       0.52624840
2
Properties=species:S:1:pos:R:3:forces:R:3 energy=-3.157584550725521 pbc="F F F"
Cu       0.00000000       0.00000000       0.00000000       0.00000000       0.00000000       0.00039345
Cu       0.00000000       0.00000000       2.23757576       0.00000000       0.00000000      -0.00039345
2
Properties=species:S:1:pos:R:3:forces:R:3 energy=-3.1473630284492717 pbc="F F F"
Cu       0.00000000       0.00000000       0.00000000       0.00000000       0.00000000       0.32261446
Cu       0.00000000       0.00000000       2.29636364       0.00000000       0.00000000      -0.32261446
2
Properties=species:S:1:pos:R:3:forces:R:3 energy=-3.1212953691896734 pbc="F F F"
Cu       0.00000000       0.00000000       0.00000000       0.00000000       0.00000000       0.55569106
Cu       0.00000000       0.00000000       2.35515152       0.00000000       0.00000000      -0.55569106
2
Properties=species:S:1:pos:R:3:forces:R:3 energy=-3.0827488376474057 pbc="F F F"
Cu       0.00000000       0.00000000       0.00000000       0.00000000       0.00000000       0.75068820
Cu       0.00000000       0.00000000       2.41393939       0.00000000       0.00000000      -0.75068820
2
Properties=species:S:1:pos:R:3:forces:R:3 energy=-3.0342368104702335 pbc="F F F"
Cu       0.00000000       0.00000000       0.00000000       0.00000000       0.00000000       0.88236964
Cu       0.00000000       0.00000000       2.47272727       0.00000000       0.00000000      -0.88236964
2
Properties=species:S:1:pos:R:3:forces:R:3 energy=-2.980935513818037 pbc="F F F"
Cu       0.00000000       0.00000000       0.00000000       0.00000000       0.00000000       0.92196476
Cu       0.00000000       0.00000000       2.53151515       0.00000000       0.00000000      -0.92196476
2
Properties=species:S:1:pos:R:3:forces:R:3 energy=-2.9261300170932967 pbc="F F F"
Cu       0.00000000       0.00000000       0.00000000       0.00000000       0.00000000       0.94198811
Cu       0.00000000       0.00000000       2.59030303       0.00000000       0.00000000      -0.94198811
2
Properties=species:S:1:pos:R:3:forces:R:3 energy=-2.8703820137158393 pbc="F F F"
Cu       0.00000000       0.00000000       0.00000000       0.00000000       0.00000000       0.95226645
Cu       0.00000000       0.00000000       2.64909091       0.00000000       0.00000000      -0.95226645
2
Properties=species:S:1:pos:R:3:forces:R:3 energy=-2.8143276108569175 pbc="F F F"
Cu       0.00000000       0.00000000       0.00000000       0.00000000       0.00000000       0.95478320
Cu       0.00000000       0.00000000       2.70787879       0.00000000       0.00000000      -0.95478320
2
Properties=species:S:1:pos:R:3:forces:R:3 energy=-2.758023357006618 pbc="F F F"
Cu       0.00000000       0.00000000       0.00000000       0.00000000       0.00000000       0.96156013
Cu       0.00000000       0.00000000       2.76666667       0.00000000       0.00000000      -0.96156013
2
Properties=species:S:1:pos:R:3:forces:R:3 energy=-2.7012791731041097 pbc="F F F"
Cu       0.00000000       0.00000000       0.00000000       0.00000000       0.00000000       0.96771926
Cu       0.00000000       0.00000000       2.82545455       0.00000000       0.00000000      -0.96771926
2
Properties=species:S:1:pos:R:3:forces:R:3 energy=-2.6445024442199507 pbc="F F F"
Cu       0.00000000       0.00000000       0.00000000       0.00000000       0.00000000       0.96100485
Cu       0.00000000       0.00000000       2.88424242       0.00000000       0.00000000      -0.96100485
2
Properties=species:S:1:pos:R:3:forces:R:3 energy=-2.588634154155595 pbc="F F F"
Cu       0.00000000       0.00000000       0.00000000       0.00000000       0.00000000       0.93703270
Cu       0.00000000       0.00000000       2.94303030       0.00000000       0.00000000      -0.93703270
2
Properties=species:S:1:pos:R:3:forces:R:3 energy=-2.534560430127886 pbc="F F F"
Cu       0.00000000       0.00000000       0.00000000       0.00000000       0.00000000       0.90131521
Cu       0.00000000       0.00000000       3.00181818       0.00000000       0.00000000      -0.90131521
2
Properties=species:S:1:pos:R:3:forces:R:3 energy=-2.4827519392081734 pbc="F F F"
Cu       0.00000000       0.00000000       0.00000000       0.00000000       0.00000000       0.86074299
Cu       0.00000000       0.00000000       3.06060606       0.00000000       0.00000000      -0.86074299
2
Properties=species:S:1:pos:R:3:forces:R:3 energy=-2.4334199578093236 pbc="F F F"
Cu       0.00000000       0.00000000       0.00000000       0.00000000       0.00000000       0.81696361
Cu       0.00000000       0.00000000       3.11939394       0.00000000       0.00000000      -0.81696361
2
Properties=species:S:1:pos:R:3:forces:R:3 energy=-2.386763231489905 pbc="F F F"
Cu       0.00000000       0.00000000       0.00000000       0.00000000       0.00000000       0.76991022
Cu       0.00000000       0.00000000       3.17818182       0.00000000       0.00000000      -0.76991022
2
Properties=species:S:1:pos:R:3:forces:R:3 energy=-2.342932958592555 pbc="F F F"
Cu       0.00000000       0.00000000       0.00000000       0.00000000       0.00000000       0.72099745
Cu       0.00000000       0.00000000       3.23696970       0.00000000       0.00000000      -0.72099745
2
Properties=species:S:1:pos:R:3:forces:R:3 energy=-2.3020018791219976 pbc="F F F"
Cu       0.00000000       0.00000000       0.00000000       0.00000000       0.00000000       0.67148221
Cu       0.00000000       0.00000000       3.29575758       0.00000000       0.00000000      -0.67148221
2
Properties=species:S:1:pos:R:3:forces:R:3 energy=-2.2639796194503417 pbc="F F F"
Cu       0.00000000       0.00000000       0.00000000       0.00000000       0.00000000       0.62216520
Cu       0.00000000       0.00000000       3.35454545       0.00000000       0.00000000      -0.62216520
2
Properties=species:S:1:pos:R:3:forces:R:3 energy=-2.228828706072249 pbc="F F F"
Cu       0.00000000       0.00000000       0.00000000       0.00000000       0.00000000       0.57396811
Cu       0.00000000       0.00000000       3.41333333       0.00000000       0.00000000      -0.57396811
2
Properties=species:S:1:pos:R:3:forces:R:3 energy=-2.1964483131441557 pbc="F F F"
Cu       0.00000000       0.00000000       0.00000000       0.00000000       0.00000000       0.52815109
Cu       0.00000000       0.00000000       3.47212121       0.00000000       0.00000000      -0.52815109
2
Properties=species:S:1:pos:R:3:forces:R:3 energy=-2.1666569678100043 pbc="F F F"
Cu       0.00000000       0.00000000       0.00000000       0.00000000       0.00000000       0.48608732
Cu       0.00000000       0.00000000       3.53090909       0.00000000       0.00000000      -0.48608732
2
Properties=species:S:1:pos:R:3:forces:R:3 energy=-2.1392056733986293 pbc="F F F"
Cu       0.00000000       0.00000000       0.00000000       0.00000000       0.00000000       0.44858882
Cu       0.00000000       0.00000000       3.58969697       0.00000000       0.00000000      -0.44858882
2
Properties=species:S:1:pos:R:3:forces:R:3 energy=-2.1138248278707534 pbc="F F F"
Cu       0.00000000       0.00000000       0.00000000       0.00000000       0.00000000       0.41557133
Cu       0.00000000       0.00000000       3.64848485       0.00000000       0.00000000      -0.41557133
2
Properties=species:S:1:pos:R:3:forces:R:3 energy=-2.090270133234706 pbc="F F F"
Cu       0.00000000       0.00000000       0.00000000       0.00000000       0.00000000       0.38635013
Cu       0.00000000       0.00000000       3.70727273       0.00000000       0.00000000      -0.38635013
2
Properties=species:S:1:pos:R:3:forces:R:3 energy=-2.0683419287941662 pbc="F F F"
Cu       0.00000000       0.00000000       0.00000000       0.00000000       0.00000000       0.36005071
Cu       0.00000000       0.00000000       3.76606061       0.00000000       0.00000000      -0.36005071
2
Properties=species:S:1:pos:R:3:forces:R:3 energy=-2.0478963358008433 pbc="F F F"
Cu       0.00000000       0.00000000       0.00000000       0.00000000       0.00000000       0.33578721
Cu       0.00000000       0.00000000       3.82484848       0.00000000       0.00000000      -0.33578721
2
Properties=species:S:1:pos:R:3:forces:R:3 energy=-2.02883992988236 pbc="F F F"
Cu       0.00000000       0.00000000       0.00000000       0.00000000       0.00000000       0.31269109
Cu       0.00000000       0.00000000       3.88363636       0.00000000       0.00000000      -0.31269109
2
Properties=species:S:1:pos:R:3:forces:R:3 energy=-2.0111250867122674 pbc="F F F"
Cu       0.00000000       0.00000000       0.00000000       0.00000000       0.00000000       0.28998515
Cu       0.00000000       0.00000000       3.94242424       0.00000000       0.00000000      -0.28998515
2
Properties=species:S:1:pos:R:3:forces:R:3 energy=-1.994747553474744 pbc="F F F"
Cu       0.00000000       0.00000000       0.00000000       0.00000000       0.00000000       0.26712784
Cu       0.00000000       0.00000000       4.00121212       0.00000000       0.00000000      -0.26712784
2
Properties=species:S:1:pos:R:3:forces:R:3 energy=-1.9797229698022472 pbc="F F F"
Cu       0.00000000       0.00000000       0.00000000       0.00000000       0.00000000       0.24396051
Cu       0.00000000       0.00000000       4.06000000       0.00000000       0.00000000      -0.24396051
2
Properties=species:S:1:pos:R:3:forces:R:3 energy=-1.9660648952523687 pbc="F F F"
Cu       0.00000000       0.00000000       0.00000000       0.00000000       0.00000000       0.22073248
Cu       0.00000000       0.00000000       4.11878788       0.00000000       0.00000000      -0.22073248
2
Properties=species:S:1:pos:R:3:forces:R:3 energy=-1.9537618165861117 pbc="F F F"
Cu       0.00000000       0.00000000       0.00000000       0.00000000       0.00000000       0.19796853
Cu       0.00000000       0.00000000       4.17757576       0.00000000       0.00000000      -0.19796853
2
Properties=species:S:1:pos:R:3:forces:R:3 energy=-1.9427684094757565 pbc="F F F"
Cu       0.00000000       0.00000000       0.00000000       0.00000000       0.00000000       0.17625812
Cu       0.00000000       0.00000000       4.23636364       0.00000000       0.00000000      -0.17625812
2
Properties=species:S:1:pos:R:3:forces:R:3 energy=-1.933007363490118 pbc="F F F"
Cu       0.00000000       0.00000000       0.00000000       0.00000000       0.00000000       0.15607068
Cu       0.00000000       0.00000000       4.29515152       0.00000000       0.00000000      -0.15607068
2
Properties=species:S:1:pos:R:3:forces:R:3 energy=-1.9243826670107105 pbc="F F F"
Cu       0.00000000       0.00000000       0.00000000       0.00000000       0.00000000       0.13766801
Cu       0.00000000       0.00000000       4.35393939       0.00000000       0.00000000      -0.13766801
2
Properties=species:S:1:pos:R:3:forces:R:3 energy=-1.9167860469492122 pbc="F F F"
Cu       0.00000000       0.00000000       0.00000000       0.00000000       0.00000000       0.12109978
Cu       0.00000000       0.00000000       4.41272727       0.00000000       0.00000000      -0.12109978
2
Properties=species:S:1:pos:R:3:forces:R:3 energy=-1.9101102995970514 pbc="F F F"
Cu       0.00000000       0.00000000       0.00000000       0.00000000       0.00000000       0.10626236
Cu       0.00000000       0.00000000       4.47151515       0.00000000       0.00000000      -0.10626236
2
Properties=species:S:1:pos:R:3:forces:R:3 energy=-1.9042611719565836 pbc="F F F"
Cu       0.00000000       0.00000000       0.00000000       0.00000000       0.00000000       0.09296942
Cu       0.00000000       0.00000000       4.53030303       0.00000000       0.00000000      -0.09296942
2
Properties=species:S:1:pos:R:3:forces:R:3 energy=-1.8991524539853366 pbc="F F F"
Cu       0.00000000       0.00000000       0.00000000       0.00000000       0.00000000       0.08101988
Cu       0.00000000       0.00000000       4.58909091       0.00000000       0.00000000      -0.08101988
2
Properties=species:S:1:pos:R:3:forces:R:3 energy=-1.894712142633022 pbc="F F F"
Cu       0.00000000       0.00000000       0.00000000       0.00000000       0.00000000       0.07024805
Cu       0.00000000       0.00000000       4.64787879       0.00000000       0.00000000      -0.07024805
2
Properties=species:S:1:pos:R:3:forces:R:3 energy=-1.8908724979533011 pbc="F F F"
Cu       0.00000000       0.00000000       0.00000000       0.00000000       0.00000000       0.06055034
Cu       0.00000000       0.00000000       4.70666667       0.00000000       0.00000000      -0.06055034
2
Properties=species:S:1:pos:R:3:forces:R:3 energy=-1.8875722784019349 pbc="F F F"
Cu       0.00000000       0.00000000       0.00000000       0.00000000       0.00000000       0.05189275
Cu       0.00000000       0.00000000       4.76545455       0.00000000       0.00000000      -0.05189275
2
Properties=species:S:1:pos:R:3:forces:R:3 energy=-1.8847497244957625 pbc="F F F"
Cu       0.00000000       0.00000000       0.00000000       0.00000000       0.00000000       0.04429699
Cu       0.00000000       0.00000000       4.82424242       0.00000000       0.00000000      -0.04429699
2
Properties=species:S:1:pos:R:3:forces:R:3 energy=-1.8823415687084317 pbc="F F F"
Cu       0.00000000       0.00000000       0.00000000       0.00000000       0.00000000       0.03781660
Cu       0.00000000       0.00000000       4.88303030       0.00000000       0.00000000      -0.03781660
2
Properties=species:S:1:pos:R:3:forces:R:3 energy=-1.8802816445566994 pbc="F F F"
Cu       0.00000000       0.00000000       0.00000000       0.00000000       0.00000000       0.03250221
Cu       0.00000000       0.00000000       4.94181818       0.00000000       0.00000000      -0.03250221
2
Properties=species:S:1:pos:R:3:forces:R:3 energy=-1.8784975820024579 pbc="F F F"
Cu       0.00000000       0.00000000       0.00000000       0.00000000       0.00000000       0.02836679
Cu       0.00000000       0.00000000       5.00060606       0.00000000       0.00000000      -0.02836679
2
Properties=species:S:1:pos:R:3:forces:R:3 energy=-1.8769237897619593 pbc="F F F"
Cu       0.00000000       0.00000000       0.00000000       0.00000000       0.00000000       0.02535439
Cu       0.00000000       0.00000000       5.05939394       0.00000000       0.00000000      -0.02535439
2
Properties=species:S:1:pos:R:3:forces:R:3 energy=-1.875497615265972 pbc="F F F"
Cu       0.00000000       0.00000000       0.00000000       0.00000000       0.00000000       0.02332386
Cu       0.00000000       0.00000000       5.11818182       0.00000000       0.00000000      -0.02332386
2
Properties=species:S:1:pos:R:3:forces:R:3 energy=-1.8741675316709356 pbc="F F F"
Cu       0.00000000       0.00000000       0.00000000       0.00000000       0.00000000       0.02205165
Cu       0.00000000       0.00000000       5.17696970       0.00000000       0.00000000      -0.02205165
2
Properties=species:S:1:pos:R:3:forces:R:3 energy=-1.8728951133157703 pbc="F F F"
Cu       0.00000000       0.00000000       0.00000000       0.00000000       0.00000000       0.02125767
Cu       0.00000000       0.00000000       5.23575758       0.00000000       0.00000000      -0.02125767
2
Properties=species:S:1:pos:R:3:forces:R:3 energy=-1.8716645938478387 pbc="F F F"
Cu       0.00000000       0.00000000       0.00000000       0.00000000       0.00000000       0.02064703
Cu       0.00000000       0.00000000       5.29454545       0.00000000       0.00000000      -0.02064703
2
Properties=species:S:1:pos:R:3:forces:R:3 energy=-1.8704686236726893 pbc="F F F"
Cu       0.00000000       0.00000000       0.00000000       0.00000000       0.00000000       0.01995908
Cu       0.00000000       0.00000000       5.35333333       0.00000000       0.00000000      -0.01995908
2
Properties=species:S:1:pos:R:3:forces:R:3 energy=-1.8693225877400896 pbc="F F F"
Cu       0.00000000       0.00000000       0.00000000       0.00000000       0.00000000       0.01900738
Cu       0.00000000       0.00000000       5.41212121       0.00000000       0.00000000      -0.01900738
2
Properties=species:S:1:pos:R:3:forces:R:3 energy=-1.8682408365460264 pbc="F F F"
Cu       0.00000000       0.00000000       0.00000000       0.00000000       0.00000000       0.01770517
Cu       0.00000000       0.00000000       5.47090909       0.00000000       0.00000000      -0.01770517
2
Properties=species:S:1:pos:R:3:forces:R:3 energy=-1.8672471773421406 pbc="F F F"
Cu       0.00000000       0.00000000       0.00000000       0.00000000       0.00000000       0.01606794
Cu       0.00000000       0.00000000       5.52969697       0.00000000       0.00000000      -0.01606794
2
Properties=species:S:1:pos:R:3:forces:R:3 energy=-1.8663558267839333 pbc="F F F"
Cu       0.00000000       0.00000000       0.00000000       0.00000000       0.00000000       0.01419584
Cu       0.00000000       0.00000000       5.58848485       0.00000000       0.00000000      -0.01419584
2
Properties=species:S:1:pos:R:3:forces:R:3 energy=-1.8655791044736942 pbc="F F F"
Cu       0.00000000       0.00000000       0.00000000       0.00000000       0.00000000       0.01224380
Cu       0.00000000       0.00000000       5.64727273       0.00000000       0.00000000      -0.01224380
2
Properties=species:S:1:pos:R:3:forces:R:3 energy=-1.864914994804657 pbc="F F F"
Cu       0.00000000       0.00000000       0.00000000       0.00000000       0.00000000       0.01038374
Cu       0.00000000       0.00000000       5.70606061       0.00000000       0.00000000      -0.01038374
2
Properties=species:S:1:pos:R:3:forces:R:3 energy=-1.8643538765341898 pbc="F F F"
Cu       0.00000000       0.00000000       0.00000000       0.00000000       0.00000000       0.00876521
Cu       0.00000000       0.00000000       5.76484848       0.00000000       0.00000000      -0.00876521
2
Properties=species:S:1:pos:R:3:forces:R:3 energy=-1.8638771104872986 pbc="F F F"
Cu       0.00000000       0.00000000       0.00000000       0.00000000       0.00000000       0.00749010
Cu       0.00000000       0.00000000       5.82363636       0.00000000       0.00000000      -0.00749010
2
Properties=species:S:1:pos:R:3:forces:R:3 energy=-1.8634660764959219 pbc="F F F"
Cu       0.00000000       0.00000000       0.00000000       0.00000000       0.00000000       0.00658489
Cu       0.00000000       0.00000000       5.88242424       0.00000000       0.00000000      -0.00658489
2
Properties=species:S:1:pos:R:3:forces:R:3 energy=-1.8630974390814379 pbc="F F F"
Cu       0.00000000       0.00000000       0.00000000       0.00000000       0.00000000       0.00599706
Cu       0.00000000       0.00000000       5.94121212       0.00000000       0.00000000      -0.00599706
2
Properties=species:S:1:pos:R:3:forces:R:3 energy=-1.8627569757322506 pbc="F F F"
Cu       0.00000000       0.00000000       0.00000000       0.00000000       0.00000000       0.00560382
Cu       0.00000000       0.00000000       6.00000000       0.00000000       0.00000000      -0.00560382
