2
Properties=species:S:1:pos:R:3:forces:R:3 energy=-1605642.2420337447 pbc="F F F"
Dy       0.00000000       0.00000000       0.00000000       0.00000000       0.00000000 17783806.00000000
Dy       0.00000000       0.00000000       0.18000000       0.00000000       0.00000000 -17783806.00000000
2
Properties=species:S:1:pos:R:3:forces:R:3 energy=-728669.4920337447 pbc="F F F"
Dy       0.00000000       0.00000000       0.00000000       0.00000000       0.00000000 11706286.00000000
Dy       0.00000000       0.00000000       0.23878788       0.00000000       0.00000000 -11706286.00000000
2
Properties=species:S:1:pos:R:3:forces:R:3 energy=-228539.42953374473 pbc="F F F"
Dy       0.00000000       0.00000000       0.00000000       0.00000000       0.00000000 6001580.00000000
Dy       0.00000000       0.00000000       0.29757576       0.00000000       0.00000000 -6001580.00000000
2
Properties=species:S:1:pos:R:3:forces:R:3 energy=-31345.31039310706 pbc="F F F"
Dy       0.00000000       0.00000000       0.00000000       0.00000000       0.00000000  441684.40625000
Dy       0.00000000       0.00000000       0.35636364       0.00000000       0.00000000 -441684.40625000
2
Properties=species:S:1:pos:R:3:forces:R:3 energy=-13401.226408732058 pbc="F F F"
Dy       0.00000000       0.00000000       0.00000000       0.00000000       0.00000000  179676.42187500
Dy       0.00000000       0.00000000       0.41515152       0.00000000       0.00000000 -179676.42187500
2
Properties=species:S:1:pos:R:3:forces:R:3 energy=-6057.606779813136 pbc="F F F"
Dy       0.00000000       0.00000000       0.00000000       0.00000000       0.00000000  104167.47656250
Dy       0.00000000       0.00000000       0.47393939       0.00000000       0.00000000 -104167.47656250
2
Properties=species:S:1:pos:R:3:forces:R:3 energy=-2913.53134034734 pbc="F F F"
Dy       0.00000000       0.00000000       0.00000000       0.00000000       0.00000000     705.60656738
Dy       0.00000000       0.00000000       0.53272727       0.00000000       0.00000000    -705.60656738
2
Properties=species:S:1:pos:R:3:forces:R:3 energy=5693.852204612548 pbc="F F F"
Dy       0.00000000       0.00000000       0.00000000       0.00000000       0.00000000   34911.87109375
Dy       0.00000000       0.00000000       0.59151515       0.00000000       0.00000000  -34911.87109375
2
Properties=species:S:1:pos:R:3:forces:R:3 energy=4364.638825756983 pbc="F F F"
Dy       0.00000000       0.00000000       0.00000000       0.00000000       0.00000000  -38551.37500000
Dy       0.00000000       0.00000000       0.65030303       0.00000000       0.00000000   38551.37500000
2
Properties=species:S:1:pos:R:3:forces:R:3 energy=2459.813386367215 pbc="F F F"
Dy       0.00000000       0.00000000       0.00000000       0.00000000       0.00000000  -21658.53906250
Dy       0.00000000       0.00000000       0.70909091       0.00000000       0.00000000   21658.53906250
2
Properties=species:S:1:pos:R:3:forces:R:3 energy=1390.7363601140692 pbc="F F F"
Dy       0.00000000       0.00000000       0.00000000       0.00000000       0.00000000  -14196.22363281
Dy       0.00000000       0.00000000       0.76787879       0.00000000       0.00000000   14196.22363281
2
Properties=species:S:1:pos:R:3:forces:R:3 energy=770.3392655522334 pbc="F F F"
Dy       0.00000000       0.00000000       0.00000000       0.00000000       0.00000000   -7807.16845703
Dy       0.00000000       0.00000000       0.82666667       0.00000000       0.00000000    7807.16845703
2
Properties=species:S:1:pos:R:3:forces:R:3 energy=397.10403632614305 pbc="F F F"
Dy       0.00000000       0.00000000       0.00000000       0.00000000       0.00000000   -4681.32519531
Dy       0.00000000       0.00000000       0.88545455       0.00000000       0.00000000    4681.32519531
2
Properties=species:S:1:pos:R:3:forces:R:3 energy=203.51545938508872 pbc="F F F"
Dy       0.00000000       0.00000000       0.00000000       0.00000000       0.00000000   -2408.98876953
Dy       0.00000000       0.00000000       0.94424242       0.00000000       0.00000000    2408.98876953
2
Properties=species:S:1:pos:R:3:forces:R:3 energy=104.28870663173441 pbc="F F F"
Dy       0.00000000       0.00000000       0.00000000       0.00000000       0.00000000   -1120.19409180
Dy       0.00000000       0.00000000       1.00303030       0.00000000       0.00000000    1120.19409180
2
Properties=species:S:1:pos:R:3:forces:R:3 energy=61.41334105436134 pbc="F F F"
Dy       0.00000000       0.00000000       0.00000000       0.00000000       0.00000000    -458.11288452
Dy       0.00000000       0.00000000       1.06181818       0.00000000       0.00000000     458.11288452
2
Properties=species:S:1:pos:R:3:forces:R:3 energy=40.834339510295294 pbc="F F F"
Dy       0.00000000       0.00000000       0.00000000       0.00000000       0.00000000    -249.53948975
Dy       0.00000000       0.00000000       1.12060606       0.00000000       0.00000000     249.53948975
2
Properties=species:S:1:pos:R:3:forces:R:3 energy=29.659091525637248 pbc="F F F"
Dy       0.00000000       0.00000000       0.00000000       0.00000000       0.00000000    -140.19688416
Dy       0.00000000       0.00000000       1.17939394       0.00000000       0.00000000     140.19688416
2
Properties=species:S:1:pos:R:3:forces:R:3 energy=22.717602784153012 pbc="F F F"
Dy       0.00000000       0.00000000       0.00000000       0.00000000       0.00000000     -87.45030975
Dy       0.00000000       0.00000000       1.23818182       0.00000000       0.00000000      87.45030975
2
Properties=species:S:1:pos:R:3:forces:R:3 energy=18.41231439932189 pbc="F F F"
Dy       0.00000000       0.00000000       0.00000000       0.00000000       0.00000000     -56.07523727
Dy       0.00000000       0.00000000       1.29696970       0.00000000       0.00000000      56.07523727
2
Properties=species:S:1:pos:R:3:forces:R:3 energy=16.012391473562822 pbc="F F F"
Dy       0.00000000       0.00000000       0.00000000       0.00000000       0.00000000     -27.13904190
Dy       0.00000000       0.00000000       1.35575758       0.00000000       0.00000000      27.13904190
2
Properties=species:S:1:pos:R:3:forces:R:3 energy=14.646969265424627 pbc="F F F"
Dy       0.00000000       0.00000000       0.00000000       0.00000000       0.00000000     -23.00076866
Dy       0.00000000       0.00000000       1.41454545       0.00000000       0.00000000      23.00076866
2
Properties=species:S:1:pos:R:3:forces:R:3 energy=13.319589822688751 pbc="F F F"
Dy       0.00000000       0.00000000       0.00000000       0.00000000       0.00000000     -18.59947014
Dy       0.00000000       0.00000000       1.47333333       0.00000000       0.00000000      18.59947014
2
Properties=species:S:1:pos:R:3:forces:R:3 energy=12.569947129808117 pbc="F F F"
Dy       0.00000000       0.00000000       0.00000000       0.00000000       0.00000000      -9.57701778
Dy       0.00000000       0.00000000       1.53212121       0.00000000       0.00000000       9.57701778
2
Properties=species:S:1:pos:R:3:forces:R:3 energy=11.989435737934087 pbc="F F F"
Dy       0.00000000       0.00000000       0.00000000       0.00000000       0.00000000     -11.12085629
Dy       0.00000000       0.00000000       1.59090909       0.00000000       0.00000000      11.12085629
2
Properties=species:S:1:pos:R:3:forces:R:3 energy=11.254905202370367 pbc="F F F"
Dy       0.00000000       0.00000000       0.00000000       0.00000000       0.00000000     -13.72645855
Dy       0.00000000       0.00000000       1.64969697       0.00000000       0.00000000      13.72645855
2
Properties=species:S:1:pos:R:3:forces:R:3 energy=10.287751981350734 pbc="F F F"
Dy       0.00000000       0.00000000       0.00000000       0.00000000       0.00000000     -19.55598450
Dy       0.00000000       0.00000000       1.70848485       0.00000000       0.00000000      19.55598450
2
Properties=species:S:1:pos:R:3:forces:R:3 energy=9.052057088162686 pbc="F F F"
Dy       0.00000000       0.00000000       0.00000000       0.00000000       0.00000000     -21.77877426
Dy       0.00000000       0.00000000       1.76727273       0.00000000       0.00000000      21.77877426
2
Properties=species:S:1:pos:R:3:forces:R:3 energy=7.740064390295661 pbc="F F F"
Dy       0.00000000       0.00000000       0.00000000       0.00000000       0.00000000     -22.58627892
Dy       0.00000000       0.00000000       1.82606061       0.00000000       0.00000000      22.58627892
2
Properties=species:S:1:pos:R:3:forces:R:3 energy=6.458949968201799 pbc="F F F"
Dy       0.00000000       0.00000000       0.00000000       0.00000000       0.00000000     -20.90500641
Dy       0.00000000       0.00000000       1.88484848       0.00000000       0.00000000      20.90500641
2
Properties=species:S:1:pos:R:3:forces:R:3 energy=5.275892890202183 pbc="F F F"
Dy       0.00000000       0.00000000       0.00000000       0.00000000       0.00000000     -19.26064301
Dy       0.00000000       0.00000000       1.94363636       0.00000000       0.00000000      19.26064301
2
Properties=species:S:1:pos:R:3:forces:R:3 energy=4.204424242294063 pbc="F F F"
Dy       0.00000000       0.00000000       0.00000000       0.00000000       0.00000000     -17.15999794
Dy       0.00000000       0.00000000       2.00242424       0.00000000       0.00000000      17.15999794
2
Properties=species:S:1:pos:R:3:forces:R:3 energy=3.2552980362078956 pbc="F F F"
Dy       0.00000000       0.00000000       0.00000000       0.00000000       0.00000000     -15.17211056
Dy       0.00000000       0.00000000       2.06121212       0.00000000       0.00000000      15.17211056
2
Properties=species:S:1:pos:R:3:forces:R:3 energy=2.423193238095811 pbc="F F F"
Dy       0.00000000       0.00000000       0.00000000       0.00000000       0.00000000     -13.07114315
Dy       0.00000000       0.00000000       2.12000000       0.00000000       0.00000000      13.07114315
2
Properties=species:S:1:pos:R:3:forces:R:3 energy=1.7142176597890406 pbc="F F F"
Dy       0.00000000       0.00000000       0.00000000       0.00000000       0.00000000     -11.18713856
Dy       0.00000000       0.00000000       2.17878788       0.00000000       0.00000000      11.18713856
2
Properties=species:S:1:pos:R:3:forces:R:3 energy=1.098588584580339 pbc="F F F"
Dy       0.00000000       0.00000000       0.00000000       0.00000000       0.00000000      -9.76072025
Dy       0.00000000       0.00000000       2.23757576       0.00000000       0.00000000       9.76072025
2
Properties=species:S:1:pos:R:3:forces:R:3 energy=0.5649521869517139 pbc="F F F"
Dy       0.00000000       0.00000000       0.00000000       0.00000000       0.00000000      -8.40116692
Dy       0.00000000       0.00000000       2.29636364       0.00000000       0.00000000       8.40116692
2
Properties=species:S:1:pos:R:3:forces:R:3 energy=0.11192819272872755 pbc="F F F"
Dy       0.00000000       0.00000000       0.00000000       0.00000000       0.00000000      -7.02462101
Dy       0.00000000       0.00000000       2.35515152       0.00000000       0.00000000       7.02462101
2
Properties=species:S:1:pos:R:3:forces:R:3 energy=-0.266693002973608 pbc="F F F"
Dy       0.00000000       0.00000000       0.00000000       0.00000000       0.00000000      -5.90867853
Dy       0.00000000       0.00000000       2.41393939       0.00000000       0.00000000       5.90867853
2
Properties=species:S:1:pos:R:3:forces:R:3 energy=-0.587311892757666 pbc="F F F"
Dy       0.00000000       0.00000000       0.00000000       0.00000000       0.00000000      -5.02824736
Dy       0.00000000       0.00000000       2.47272727       0.00000000       0.00000000       5.02824736
2
Properties=species:S:1:pos:R:3:forces:R:3 energy=-0.8599536184067785 pbc="F F F"
Dy       0.00000000       0.00000000       0.00000000       0.00000000       0.00000000      -4.25948477
Dy       0.00000000       0.00000000       2.53151515       0.00000000       0.00000000       4.25948477
2
Properties=species:S:1:pos:R:3:forces:R:3 energy=-1.0913501322342634 pbc="F F F"
Dy       0.00000000       0.00000000       0.00000000       0.00000000       0.00000000      -3.65544581
Dy       0.00000000       0.00000000       2.59030303       0.00000000       0.00000000       3.65544581
2
Properties=species:S:1:pos:R:3:forces:R:3 energy=-1.2945466851854706 pbc="F F F"
Dy       0.00000000       0.00000000       0.00000000       0.00000000       0.00000000      -3.28638601
Dy       0.00000000       0.00000000       2.64909091       0.00000000       0.00000000       3.28638601
2
Properties=species:S:1:pos:R:3:forces:R:3 energy=-1.4792534784361235 pbc="F F F"
Dy       0.00000000       0.00000000       0.00000000       0.00000000       0.00000000      -2.99611855
Dy       0.00000000       0.00000000       2.70787879       0.00000000       0.00000000       2.99611855
2
Properties=species:S:1:pos:R:3:forces:R:3 energy=-1.6458536136207407 pbc="F F F"
Dy       0.00000000       0.00000000       0.00000000       0.00000000       0.00000000      -2.66215944
Dy       0.00000000       0.00000000       2.76666667       0.00000000       0.00000000       2.66215944
2
Properties=species:S:1:pos:R:3:forces:R:3 energy=-1.7915210276139784 pbc="F F F"
Dy       0.00000000       0.00000000       0.00000000       0.00000000       0.00000000      -2.29170918
Dy       0.00000000       0.00000000       2.82545455       0.00000000       0.00000000       2.29170918
2
Properties=species:S:1:pos:R:3:forces:R:3 energy=-1.9155428982053415 pbc="F F F"
Dy       0.00000000       0.00000000       0.00000000       0.00000000       0.00000000      -1.93265784
Dy       0.00000000       0.00000000       2.88424242       0.00000000       0.00000000       1.93265784
2
Properties=species:S:1:pos:R:3:forces:R:3 energy=-2.0195179450005516 pbc="F F F"
Dy       0.00000000       0.00000000       0.00000000       0.00000000       0.00000000      -1.61129880
Dy       0.00000000       0.00000000       2.94303030       0.00000000       0.00000000       1.61129880
2
Properties=species:S:1:pos:R:3:forces:R:3 energy=-2.1056705739846238 pbc="F F F"
Dy       0.00000000       0.00000000       0.00000000       0.00000000       0.00000000      -1.32407856
Dy       0.00000000       0.00000000       3.00181818       0.00000000       0.00000000       1.32407856
2
Properties=species:S:1:pos:R:3:forces:R:3 energy=-2.1756325919247166 pbc="F F F"
Dy       0.00000000       0.00000000       0.00000000       0.00000000       0.00000000      -1.05976987
Dy       0.00000000       0.00000000       3.06060606       0.00000000       0.00000000       1.05976987
2
Properties=species:S:1:pos:R:3:forces:R:3 energy=-2.230781275915816 pbc="F F F"
Dy       0.00000000       0.00000000       0.00000000       0.00000000       0.00000000      -0.82172072
Dy       0.00000000       0.00000000       3.11939394       0.00000000       0.00000000       0.82172072
2
Properties=species:S:1:pos:R:3:forces:R:3 energy=-2.272926706465805 pbc="F F F"
Dy       0.00000000       0.00000000       0.00000000       0.00000000       0.00000000      -0.61814809
Dy       0.00000000       0.00000000       3.17818182       0.00000000       0.00000000       0.61814809
2
Properties=species:S:1:pos:R:3:forces:R:3 energy=-2.304147722841754 pbc="F F F"
Dy       0.00000000       0.00000000       0.00000000       0.00000000       0.00000000      -0.44930500
Dy       0.00000000       0.00000000       3.23696970       0.00000000       0.00000000       0.44930500
2
Properties=species:S:1:pos:R:3:forces:R:3 energy=-2.3263294290403262 pbc="F F F"
Dy       0.00000000       0.00000000       0.00000000       0.00000000       0.00000000      -0.30969694
Dy       0.00000000       0.00000000       3.29575758       0.00000000       0.00000000       0.30969694
2
Properties=species:S:1:pos:R:3:forces:R:3 energy=-2.3410221386879733 pbc="F F F"
Dy       0.00000000       0.00000000       0.00000000       0.00000000       0.00000000      -0.19377609
Dy       0.00000000       0.00000000       3.35454545       0.00000000       0.00000000       0.19377609
2
Properties=species:S:1:pos:R:3:forces:R:3 energy=-2.349510904567012 pbc="F F F"
Dy       0.00000000       0.00000000       0.00000000       0.00000000       0.00000000      -0.09820397
Dy       0.00000000       0.00000000       3.41333333       0.00000000       0.00000000       0.09820397
2
Properties=species:S:1:pos:R:3:forces:R:3 energy=-2.35288136015732 pbc="F F F"
Dy       0.00000000       0.00000000       0.00000000       0.00000000       0.00000000      -0.01861168
Dy       0.00000000       0.00000000       3.47212121       0.00000000       0.00000000       0.01861168
2
Properties=species:S:1:pos:R:3:forces:R:3 energy=-2.351874761140244 pbc="F F F"
Dy       0.00000000       0.00000000       0.00000000       0.00000000       0.00000000       0.05205997
Dy       0.00000000       0.00000000       3.53090909       0.00000000       0.00000000      -0.05205997
2
Properties=species:S:1:pos:R:3:forces:R:3 energy=-2.3468146031613917 pbc="F F F"
Dy       0.00000000       0.00000000       0.00000000       0.00000000       0.00000000       0.11983751
Dy       0.00000000       0.00000000       3.58969697       0.00000000       0.00000000      -0.11983751
2
Properties=species:S:1:pos:R:3:forces:R:3 energy=-2.33779928938512 pbc="F F F"
Dy       0.00000000       0.00000000       0.00000000       0.00000000       0.00000000       0.18664131
Dy       0.00000000       0.00000000       3.64848485       0.00000000       0.00000000      -0.18664131
2
Properties=species:S:1:pos:R:3:forces:R:3 energy=-2.324915778883989 pbc="F F F"
Dy       0.00000000       0.00000000       0.00000000       0.00000000       0.00000000       0.25121838
Dy       0.00000000       0.00000000       3.70727273       0.00000000       0.00000000      -0.25121838
2
Properties=species:S:1:pos:R:3:forces:R:3 energy=-2.308348128112794 pbc="F F F"
Dy       0.00000000       0.00000000       0.00000000       0.00000000       0.00000000       0.31157142
Dy       0.00000000       0.00000000       3.76606061       0.00000000       0.00000000      -0.31157142
2
Properties=species:S:1:pos:R:3:forces:R:3 energy=-2.288391146459917 pbc="F F F"
Dy       0.00000000       0.00000000       0.00000000       0.00000000       0.00000000       0.36629820
Dy       0.00000000       0.00000000       3.82484848       0.00000000       0.00000000      -0.36629820
2
Properties=species:S:1:pos:R:3:forces:R:3 energy=-2.2654034127800546 pbc="F F F"
Dy       0.00000000       0.00000000       0.00000000       0.00000000       0.00000000       0.41467428
Dy       0.00000000       0.00000000       3.88363636       0.00000000       0.00000000      -0.41467428
2
Properties=species:S:1:pos:R:3:forces:R:3 energy=-2.2397674744986986 pbc="F F F"
Dy       0.00000000       0.00000000       0.00000000       0.00000000       0.00000000       0.45638040
Dy       0.00000000       0.00000000       3.94242424       0.00000000       0.00000000      -0.45638040
2
Properties=species:S:1:pos:R:3:forces:R:3 energy=-2.2118763948013993 pbc="F F F"
Dy       0.00000000       0.00000000       0.00000000       0.00000000       0.00000000       0.49138594
Dy       0.00000000       0.00000000       4.00121212       0.00000000       0.00000000      -0.49138594
2
Properties=species:S:1:pos:R:3:forces:R:3 energy=-2.1821195235467497 pbc="F F F"
Dy       0.00000000       0.00000000       0.00000000       0.00000000       0.00000000       0.51997399
Dy       0.00000000       0.00000000       4.06000000       0.00000000       0.00000000      -0.51997399
2
Properties=species:S:1:pos:R:3:forces:R:3 energy=-2.1508548913963645 pbc="F F F"
Dy       0.00000000       0.00000000       0.00000000       0.00000000       0.00000000       0.54266101
Dy       0.00000000       0.00000000       4.11878788       0.00000000       0.00000000      -0.54266101
2
Properties=species:S:1:pos:R:3:forces:R:3 energy=-2.118422599269176 pbc="F F F"
Dy       0.00000000       0.00000000       0.00000000       0.00000000       0.00000000       0.55991942
Dy       0.00000000       0.00000000       4.17757576       0.00000000       0.00000000      -0.55991942
2
Properties=species:S:1:pos:R:3:forces:R:3 energy=-2.085126736543287 pbc="F F F"
Dy       0.00000000       0.00000000       0.00000000       0.00000000       0.00000000       0.57192326
Dy       0.00000000       0.00000000       4.23636364       0.00000000       0.00000000      -0.57192326
2
Properties=species:S:1:pos:R:3:forces:R:3 energy=-2.0512821110974753 pbc="F F F"
Dy       0.00000000       0.00000000       0.00000000       0.00000000       0.00000000       0.57852674
Dy       0.00000000       0.00000000       4.29515152       0.00000000       0.00000000      -0.57852674
2
Properties=species:S:1:pos:R:3:forces:R:3 energy=-2.0172163594004453 pbc="F F F"
Dy       0.00000000       0.00000000       0.00000000       0.00000000       0.00000000       0.57948786
Dy       0.00000000       0.00000000       4.35393939       0.00000000       0.00000000      -0.57948786
2
Properties=species:S:1:pos:R:3:forces:R:3 energy=-1.983261211386515 pbc="F F F"
Dy       0.00000000       0.00000000       0.00000000       0.00000000       0.00000000       0.57474554
Dy       0.00000000       0.00000000       4.41272727       0.00000000       0.00000000      -0.57474554
2
Properties=species:S:1:pos:R:3:forces:R:3 energy=-1.949745013116549 pbc="F F F"
Dy       0.00000000       0.00000000       0.00000000       0.00000000       0.00000000       0.56461746
Dy       0.00000000       0.00000000       4.47151515       0.00000000       0.00000000      -0.56461746
2
Properties=species:S:1:pos:R:3:forces:R:3 energy=-1.9169680199447525 pbc="F F F"
Dy       0.00000000       0.00000000       0.00000000       0.00000000       0.00000000       0.54978478
Dy       0.00000000       0.00000000       4.53030303       0.00000000       0.00000000      -0.54978478
2
Properties=species:S:1:pos:R:3:forces:R:3 energy=-1.8851785039756057 pbc="F F F"
Dy       0.00000000       0.00000000       0.00000000       0.00000000       0.00000000       0.53117502
Dy       0.00000000       0.00000000       4.58909091       0.00000000       0.00000000      -0.53117502
2
Properties=species:S:1:pos:R:3:forces:R:3 energy=-1.8545671080456978 pbc="F F F"
Dy       0.00000000       0.00000000       0.00000000       0.00000000       0.00000000       0.50984484
Dy       0.00000000       0.00000000       4.64787879       0.00000000       0.00000000      -0.50984484
2
Properties=species:S:1:pos:R:3:forces:R:3 energy=-1.825264022714643 pbc="F F F"
Dy       0.00000000       0.00000000       0.00000000       0.00000000       0.00000000       0.48685604
Dy       0.00000000       0.00000000       4.70666667       0.00000000       0.00000000      -0.48685604
2
Properties=species:S:1:pos:R:3:forces:R:3 energy=-1.7973370979233811 pbc="F F F"
Dy       0.00000000       0.00000000       0.00000000       0.00000000       0.00000000       0.46326366
Dy       0.00000000       0.00000000       4.76545455       0.00000000       0.00000000      -0.46326366
2
Properties=species:S:1:pos:R:3:forces:R:3 energy=-1.7707889946425162 pbc="F F F"
Dy       0.00000000       0.00000000       0.00000000       0.00000000       0.00000000       0.44006234
Dy       0.00000000       0.00000000       4.82424242       0.00000000       0.00000000      -0.44006234
2
Properties=species:S:1:pos:R:3:forces:R:3 energy=-1.7455724753396011 pbc="F F F"
Dy       0.00000000       0.00000000       0.00000000       0.00000000       0.00000000       0.41810185
Dy       0.00000000       0.00000000       4.88303030       0.00000000       0.00000000      -0.41810185
2
Properties=species:S:1:pos:R:3:forces:R:3 energy=-1.7215903089444733 pbc="F F F"
Dy       0.00000000       0.00000000       0.00000000       0.00000000       0.00000000       0.39798340
Dy       0.00000000       0.00000000       4.94181818       0.00000000       0.00000000      -0.39798340
2
Properties=species:S:1:pos:R:3:forces:R:3 energy=-1.698738205200425 pbc="F F F"
Dy       0.00000000       0.00000000       0.00000000       0.00000000       0.00000000       0.37989664
Dy       0.00000000       0.00000000       5.00060606       0.00000000       0.00000000      -0.37989664
2
Properties=species:S:1:pos:R:3:forces:R:3 energy=-1.6768915202445733 pbc="F F F"
Dy       0.00000000       0.00000000       0.00000000       0.00000000       0.00000000       0.36352268
Dy       0.00000000       0.00000000       5.05939394       0.00000000       0.00000000      -0.36352268
2
Properties=species:S:1:pos:R:3:forces:R:3 energy=-1.6559794721421432 pbc="F F F"
Dy       0.00000000       0.00000000       0.00000000       0.00000000       0.00000000       0.34800664
Dy       0.00000000       0.00000000       5.11818182       0.00000000       0.00000000      -0.34800664
2
Properties=species:S:1:pos:R:3:forces:R:3 energy=-1.6359822355140081 pbc="F F F"
Dy       0.00000000       0.00000000       0.00000000       0.00000000       0.00000000       0.33211613
Dy       0.00000000       0.00000000       5.17696970       0.00000000       0.00000000      -0.33211613
2
Properties=species:S:1:pos:R:3:forces:R:3 energy=-1.6169652738120814 pbc="F F F"
Dy       0.00000000       0.00000000       0.00000000       0.00000000       0.00000000       0.31445023
Dy       0.00000000       0.00000000       5.23575758       0.00000000       0.00000000      -0.31445023
2
Properties=species:S:1:pos:R:3:forces:R:3 energy=-1.5990715642049653 pbc="F F F"
Dy       0.00000000       0.00000000       0.00000000       0.00000000       0.00000000       0.29376110
Dy       0.00000000       0.00000000       5.29454545       0.00000000       0.00000000      -0.29376110
2
Properties=species:S:1:pos:R:3:forces:R:3 energy=-1.582502492413402 pbc="F F F"
Dy       0.00000000       0.00000000       0.00000000       0.00000000       0.00000000       0.26927546
Dy       0.00000000       0.00000000       5.35333333       0.00000000       0.00000000      -0.26927546
2
Properties=species:S:1:pos:R:3:forces:R:3 energy=-1.5674881494222903 pbc="F F F"
Dy       0.00000000       0.00000000       0.00000000       0.00000000       0.00000000       0.24088521
Dy       0.00000000       0.00000000       5.41212121       0.00000000       0.00000000      -0.24088521
2
Properties=species:S:1:pos:R:3:forces:R:3 energy=-1.5542453191256096 pbc="F F F"
Dy       0.00000000       0.00000000       0.00000000       0.00000000       0.00000000       0.20926784
Dy       0.00000000       0.00000000       5.47090909       0.00000000       0.00000000      -0.20926784
2
Properties=species:S:1:pos:R:3:forces:R:3 energy=-1.5429182174702718 pbc="F F F"
Dy       0.00000000       0.00000000       0.00000000       0.00000000       0.00000000       0.17580801
Dy       0.00000000       0.00000000       5.52969697       0.00000000       0.00000000      -0.17580801
2
Properties=species:S:1:pos:R:3:forces:R:3 energy=-1.5335707933695033 pbc="F F F"
Dy       0.00000000       0.00000000       0.00000000       0.00000000       0.00000000       0.14241253
Dy       0.00000000       0.00000000       5.58848485       0.00000000       0.00000000      -0.14241253
2
Properties=species:S:1:pos:R:3:forces:R:3 energy=-1.526132356595522 pbc="F F F"
Dy       0.00000000       0.00000000       0.00000000       0.00000000       0.00000000       0.11119362
Dy       0.00000000       0.00000000       5.64727273       0.00000000       0.00000000      -0.11119362
2
Properties=species:S:1:pos:R:3:forces:R:3 energy=-1.5204164675321792 pbc="F F F"
Dy       0.00000000       0.00000000       0.00000000       0.00000000       0.00000000       0.08414452
Dy       0.00000000       0.00000000       5.70606061       0.00000000       0.00000000      -0.08414452
2
Properties=species:S:1:pos:R:3:forces:R:3 energy=-1.5161256421901 pbc="F F F"
Dy       0.00000000       0.00000000       0.00000000       0.00000000       0.00000000       0.06273585
Dy       0.00000000       0.00000000       5.76484848       0.00000000       0.00000000      -0.06273585
2
Properties=species:S:1:pos:R:3:forces:R:3 energy=-1.512912507740174 pbc="F F F"
Dy       0.00000000       0.00000000       0.00000000       0.00000000       0.00000000       0.04771813
Dy       0.00000000       0.00000000       5.82363636       0.00000000       0.00000000      -0.04771813
2
Properties=species:S:1:pos:R:3:forces:R:3 energy=-1.5103986225741128 pbc="F F F"
Dy       0.00000000       0.00000000       0.00000000       0.00000000       0.00000000       0.03882634
Dy       0.00000000       0.00000000       5.88242424       0.00000000       0.00000000      -0.03882634
2
Properties=species:S:1:pos:R:3:forces:R:3 energy=-1.5082508209349157 pbc="F F F"
Dy       0.00000000       0.00000000       0.00000000       0.00000000       0.00000000       0.03479713
Dy       0.00000000       0.00000000       5.94121212       0.00000000       0.00000000      -0.03479713
2
Properties=species:S:1:pos:R:3:forces:R:3 energy=-1.506249918649339 pbc="F F F"
Dy       0.00000000       0.00000000       0.00000000       0.00000000       0.00000000       0.03349671
Dy       0.00000000       0.00000000       6.00000000       0.00000000       0.00000000      -0.03349671
