2
Properties=species:S:1:pos:R:3:forces:R:3 energy=489251.04863611027 pbc="F F F"
Ga       0.00000000       0.00000000       0.00000000       0.00000000       0.00000000 -4123560.75000000
Ga       0.00000000       0.00000000       0.18000000       0.00000000       0.00000000 4123560.75000000
2
Properties=species:S:1:pos:R:3:forces:R:3 energy=270856.23613611027 pbc="F F F"
Ga       0.00000000       0.00000000       0.00000000       0.00000000       0.00000000 -3187883.75000000
Ga       0.00000000       0.00000000       0.23878788       0.00000000       0.00000000 3187883.75000000
2
Properties=species:S:1:pos:R:3:forces:R:3 energy=121815.56426111345 pbc="F F F"
Ga       0.00000000       0.00000000       0.00000000       0.00000000       0.00000000 -1878648.75000000
Ga       0.00000000       0.00000000       0.29757576       0.00000000       0.00000000 1878648.75000000
2
Properties=species:S:1:pos:R:3:forces:R:3 energy=44403.38066736345 pbc="F F F"
Ga       0.00000000       0.00000000       0.00000000       0.00000000       0.00000000 -894391.12500000
Ga       0.00000000       0.00000000       0.35636364       0.00000000       0.00000000  894391.12500000
2
Properties=species:S:1:pos:R:3:forces:R:3 energy=12587.556448619787 pbc="F F F"
Ga       0.00000000       0.00000000       0.00000000       0.00000000       0.00000000 -285702.09375000
Ga       0.00000000       0.00000000       0.41515152       0.00000000       0.00000000  285702.09375000
2
Properties=species:S:1:pos:R:3:forces:R:3 energy=1582.4396273433958 pbc="F F F"
Ga       0.00000000       0.00000000       0.00000000       0.00000000       0.00000000  -87466.02343750
Ga       0.00000000       0.00000000       0.47393939       0.00000000       0.00000000   87466.02343750
2
Properties=species:S:1:pos:R:3:forces:R:3 energy=-959.4662564266598 pbc="F F F"
Ga       0.00000000       0.00000000       0.00000000       0.00000000       0.00000000  -17728.80273438
Ga       0.00000000       0.00000000       0.53272727       0.00000000       0.00000000   17728.80273438
2
Properties=species:S:1:pos:R:3:forces:R:3 energy=-914.2634365612594 pbc="F F F"
Ga       0.00000000       0.00000000       0.00000000       0.00000000       0.00000000   14897.18945312
Ga       0.00000000       0.00000000       0.59151515       0.00000000       0.00000000  -14897.18945312
2
Properties=species:S:1:pos:R:3:forces:R:3 energy=-303.00168723349265 pbc="F F F"
Ga       0.00000000       0.00000000       0.00000000       0.00000000       0.00000000    6017.82470703
Ga       0.00000000       0.00000000       0.65030303       0.00000000       0.00000000   -6017.82470703
2
Properties=species:S:1:pos:R:3:forces:R:3 energy=-147.12592419266923 pbc="F F F"
Ga       0.00000000       0.00000000       0.00000000       0.00000000       0.00000000     920.42480469
Ga       0.00000000       0.00000000       0.70909091       0.00000000       0.00000000    -920.42480469
2
Properties=species:S:1:pos:R:3:forces:R:3 energy=-96.5831536612072 pbc="F F F"
Ga       0.00000000       0.00000000       0.00000000       0.00000000       0.00000000    1018.90356445
Ga       0.00000000       0.00000000       0.76787879       0.00000000       0.00000000   -1018.90356445
2
Properties=species:S:1:pos:R:3:forces:R:3 energy=-45.76451558522363 pbc="F F F"
Ga       0.00000000       0.00000000       0.00000000       0.00000000       0.00000000     825.89154053
Ga       0.00000000       0.00000000       0.82666667       0.00000000       0.00000000    -825.89154053
2
Properties=species:S:1:pos:R:3:forces:R:3 energy=-0.019718998684526902 pbc="F F F"
Ga       0.00000000       0.00000000       0.00000000       0.00000000       0.00000000     699.02197266
Ga       0.00000000       0.00000000       0.88545455       0.00000000       0.00000000    -699.02197266
2
Properties=species:S:1:pos:R:3:forces:R:3 energy=32.59733591041126 pbc="F F F"
Ga       0.00000000       0.00000000       0.00000000       0.00000000       0.00000000     305.30032349
Ga       0.00000000       0.00000000       0.94424242       0.00000000       0.00000000    -305.30032349
2
Properties=species:S:1:pos:R:3:forces:R:3 energy=52.52928232258218 pbc="F F F"
Ga       0.00000000       0.00000000       0.00000000       0.00000000       0.00000000     243.31433105
Ga       0.00000000       0.00000000       1.00303030       0.00000000       0.00000000    -243.31433105
2
Properties=species:S:1:pos:R:3:forces:R:3 energy=54.71222839768078 pbc="F F F"
Ga       0.00000000       0.00000000       0.00000000       0.00000000       0.00000000     -99.79415131
Ga       0.00000000       0.00000000       1.06181818       0.00000000       0.00000000      99.79415131
2
Properties=species:S:1:pos:R:3:forces:R:3 energy=47.30215335238982 pbc="F F F"
Ga       0.00000000       0.00000000       0.00000000       0.00000000       0.00000000    -154.40229797
Ga       0.00000000       0.00000000       1.12060606       0.00000000       0.00000000     154.40229797
2
Properties=species:S:1:pos:R:3:forces:R:3 energy=38.5582735586595 pbc="F F F"
Ga       0.00000000       0.00000000       0.00000000       0.00000000       0.00000000    -145.82206726
Ga       0.00000000       0.00000000       1.17939394       0.00000000       0.00000000     145.82206726
2
Properties=species:S:1:pos:R:3:forces:R:3 energy=30.955637176710017 pbc="F F F"
Ga       0.00000000       0.00000000       0.00000000       0.00000000       0.00000000    -130.89579773
Ga       0.00000000       0.00000000       1.23818182       0.00000000       0.00000000     130.89579773
2
Properties=species:S:1:pos:R:3:forces:R:3 energy=23.688450520362075 pbc="F F F"
Ga       0.00000000       0.00000000       0.00000000       0.00000000       0.00000000    -116.77033234
Ga       0.00000000       0.00000000       1.29696970       0.00000000       0.00000000     116.77033234
2
Properties=species:S:1:pos:R:3:forces:R:3 energy=17.76491721646265 pbc="F F F"
Ga       0.00000000       0.00000000       0.00000000       0.00000000       0.00000000     -86.21205902
Ga       0.00000000       0.00000000       1.35575758       0.00000000       0.00000000      86.21205902
2
Properties=species:S:1:pos:R:3:forces:R:3 energy=13.27424028208746 pbc="F F F"
Ga       0.00000000       0.00000000       0.00000000       0.00000000       0.00000000     -67.00688171
Ga       0.00000000       0.00000000       1.41454545       0.00000000       0.00000000      67.00688171
2
Properties=species:S:1:pos:R:3:forces:R:3 energy=9.859148671666144 pbc="F F F"
Ga       0.00000000       0.00000000       0.00000000       0.00000000       0.00000000     -49.79402161
Ga       0.00000000       0.00000000       1.47333333       0.00000000       0.00000000      49.79402161
2
Properties=species:S:1:pos:R:3:forces:R:3 energy=7.342590535234485 pbc="F F F"
Ga       0.00000000       0.00000000       0.00000000       0.00000000       0.00000000     -36.70836258
Ga       0.00000000       0.00000000       1.53212121       0.00000000       0.00000000      36.70836258
2
Properties=species:S:1:pos:R:3:forces:R:3 energy=5.455349525386225 pbc="F F F"
Ga       0.00000000       0.00000000       0.00000000       0.00000000       0.00000000     -28.25773811
Ga       0.00000000       0.00000000       1.59090909       0.00000000       0.00000000      28.25773811
2
Properties=species:S:1:pos:R:3:forces:R:3 energy=3.9581475695458685 pbc="F F F"
Ga       0.00000000       0.00000000       0.00000000       0.00000000       0.00000000     -22.65522385
Ga       0.00000000       0.00000000       1.64969697       0.00000000       0.00000000      22.65522385
2
Properties=species:S:1:pos:R:3:forces:R:3 energy=2.7489093348534936 pbc="F F F"
Ga       0.00000000       0.00000000       0.00000000       0.00000000       0.00000000     -18.84333611
Ga       0.00000000       0.00000000       1.70848485       0.00000000       0.00000000      18.84333611
2
Properties=species:S:1:pos:R:3:forces:R:3 energy=1.7251437086219807 pbc="F F F"
Ga       0.00000000       0.00000000       0.00000000       0.00000000       0.00000000     -16.26191139
Ga       0.00000000       0.00000000       1.76727273       0.00000000       0.00000000      16.26191139
2
Properties=species:S:1:pos:R:3:forces:R:3 energy=0.8046247027254404 pbc="F F F"
Ga       0.00000000       0.00000000       0.00000000       0.00000000       0.00000000     -14.94808483
Ga       0.00000000       0.00000000       1.82606061       0.00000000       0.00000000      14.94808483
2
Properties=species:S:1:pos:R:3:forces:R:3 energy=0.000530502482366843 pbc="F F F"
Ga       0.00000000       0.00000000       0.00000000       0.00000000       0.00000000     -12.37947750
Ga       0.00000000       0.00000000       1.88484848       0.00000000       0.00000000      12.37947750
2
Properties=species:S:1:pos:R:3:forces:R:3 energy=-0.6560679262851303 pbc="F F F"
Ga       0.00000000       0.00000000       0.00000000       0.00000000       0.00000000      -9.99389744
Ga       0.00000000       0.00000000       1.94363636       0.00000000       0.00000000       9.99389744
2
Properties=species:S:1:pos:R:3:forces:R:3 energy=-1.1816236311411217 pbc="F F F"
Ga       0.00000000       0.00000000       0.00000000       0.00000000       0.00000000      -7.94589520
Ga       0.00000000       0.00000000       2.00242424       0.00000000       0.00000000       7.94589520
2
Properties=species:S:1:pos:R:3:forces:R:3 energy=-1.5935596889814598 pbc="F F F"
Ga       0.00000000       0.00000000       0.00000000       0.00000000       0.00000000      -6.09954214
Ga       0.00000000       0.00000000       2.06121212       0.00000000       0.00000000       6.09954214
2
Properties=species:S:1:pos:R:3:forces:R:3 energy=-1.905432230089587 pbc="F F F"
Ga       0.00000000       0.00000000       0.00000000       0.00000000       0.00000000      -4.55519295
Ga       0.00000000       0.00000000       2.12000000       0.00000000       0.00000000       4.55519295
2
Properties=species:S:1:pos:R:3:forces:R:3 energy=-2.1345352145336 pbc="F F F"
Ga       0.00000000       0.00000000       0.00000000       0.00000000       0.00000000      -3.30559587
Ga       0.00000000       0.00000000       2.17878788       0.00000000       0.00000000       3.30559587
2
Properties=species:S:1:pos:R:3:forces:R:3 energy=-2.30059879343724 pbc="F F F"
Ga       0.00000000       0.00000000       0.00000000       0.00000000       0.00000000      -2.38490033
Ga       0.00000000       0.00000000       2.23757576       0.00000000       0.00000000       2.38490033
2
Properties=species:S:1:pos:R:3:forces:R:3 energy=-2.4206105136531804 pbc="F F F"
Ga       0.00000000       0.00000000       0.00000000       0.00000000       0.00000000      -1.73916447
Ga       0.00000000       0.00000000       2.29636364       0.00000000       0.00000000       1.73916447
2
Properties=species:S:1:pos:R:3:forces:R:3 energy=-2.507600971912189 pbc="F F F"
Ga       0.00000000       0.00000000       0.00000000       0.00000000       0.00000000      -1.23481667
Ga       0.00000000       0.00000000       2.35515152       0.00000000       0.00000000       1.23481667
2
Properties=species:S:1:pos:R:3:forces:R:3 energy=-2.567773551402043 pbc="F F F"
Ga       0.00000000       0.00000000       0.00000000       0.00000000       0.00000000      -0.82515889
Ga       0.00000000       0.00000000       2.41393939       0.00000000       0.00000000       0.82515889
2
Properties=species:S:1:pos:R:3:forces:R:3 energy=-2.605729346753523 pbc="F F F"
Ga       0.00000000       0.00000000       0.00000000       0.00000000       0.00000000      -0.47680703
Ga       0.00000000       0.00000000       2.47272727       0.00000000       0.00000000       0.47680703
2
Properties=species:S:1:pos:R:3:forces:R:3 energy=-2.625016746703574 pbc="F F F"
Ga       0.00000000       0.00000000       0.00000000       0.00000000       0.00000000      -0.18781742
Ga       0.00000000       0.00000000       2.53151515       0.00000000       0.00000000       0.18781742
2
Properties=species:S:1:pos:R:3:forces:R:3 energy=-2.629133413180523 pbc="F F F"
Ga       0.00000000       0.00000000       0.00000000       0.00000000       0.00000000       0.03336619
Ga       0.00000000       0.00000000       2.59030303       0.00000000       0.00000000      -0.03336619
2
Properties=species:S:1:pos:R:3:forces:R:3 energy=-2.6225883098733096 pbc="F F F"
Ga       0.00000000       0.00000000       0.00000000       0.00000000       0.00000000       0.18092787
Ga       0.00000000       0.00000000       2.64909091       0.00000000       0.00000000      -0.18092787
2
Properties=species:S:1:pos:R:3:forces:R:3 energy=-2.608313055374644 pbc="F F F"
Ga       0.00000000       0.00000000       0.00000000       0.00000000       0.00000000       0.30395561
Ga       0.00000000       0.00000000       2.70787879       0.00000000       0.00000000      -0.30395561
2
Properties=species:S:1:pos:R:3:forces:R:3 energy=-2.586873901333317 pbc="F F F"
Ga       0.00000000       0.00000000       0.00000000       0.00000000       0.00000000       0.42458636
Ga       0.00000000       0.00000000       2.76666667       0.00000000       0.00000000      -0.42458636
2
Properties=species:S:1:pos:R:3:forces:R:3 energy=-2.55866415041755 pbc="F F F"
Ga       0.00000000       0.00000000       0.00000000       0.00000000       0.00000000       0.53123462
Ga       0.00000000       0.00000000       2.82545455       0.00000000       0.00000000      -0.53123462
2
Properties=species:S:1:pos:R:3:forces:R:3 energy=-2.5250172128903077 pbc="F F F"
Ga       0.00000000       0.00000000       0.00000000       0.00000000       0.00000000       0.60750031
Ga       0.00000000       0.00000000       2.88424242       0.00000000       0.00000000      -0.60750031
2
Properties=species:S:1:pos:R:3:forces:R:3 energy=-2.487928006763852 pbc="F F F"
Ga       0.00000000       0.00000000       0.00000000       0.00000000       0.00000000       0.64915961
Ga       0.00000000       0.00000000       2.94303030       0.00000000       0.00000000      -0.64915961
2
Properties=species:S:1:pos:R:3:forces:R:3 energy=-2.449122565872371 pbc="F F F"
Ga       0.00000000       0.00000000       0.00000000       0.00000000       0.00000000       0.66894495
Ga       0.00000000       0.00000000       3.00181818       0.00000000       0.00000000      -0.66894495
2
Properties=species:S:1:pos:R:3:forces:R:3 energy=-2.409384727407893 pbc="F F F"
Ga       0.00000000       0.00000000       0.00000000       0.00000000       0.00000000       0.68259543
Ga       0.00000000       0.00000000       3.06060606       0.00000000       0.00000000      -0.68259543
2
Properties=species:S:1:pos:R:3:forces:R:3 energy=-2.368922323072558 pbc="F F F"
Ga       0.00000000       0.00000000       0.00000000       0.00000000       0.00000000       0.69312859
Ga       0.00000000       0.00000000       3.11939394       0.00000000       0.00000000      -0.69312859
2
Properties=species:S:1:pos:R:3:forces:R:3 energy=-2.3280385375553103 pbc="F F F"
Ga       0.00000000       0.00000000       0.00000000       0.00000000       0.00000000       0.69623214
Ga       0.00000000       0.00000000       3.17818182       0.00000000       0.00000000      -0.69623214
2
Properties=species:S:1:pos:R:3:forces:R:3 energy=-2.287254459002237 pbc="F F F"
Ga       0.00000000       0.00000000       0.00000000       0.00000000       0.00000000       0.68962228
Ga       0.00000000       0.00000000       3.23696970       0.00000000       0.00000000      -0.68962228
2
Properties=species:S:1:pos:R:3:forces:R:3 energy=-2.247143731930598 pbc="F F F"
Ga       0.00000000       0.00000000       0.00000000       0.00000000       0.00000000       0.67345089
Ga       0.00000000       0.00000000       3.29575758       0.00000000       0.00000000      -0.67345089
2
Properties=species:S:1:pos:R:3:forces:R:3 energy=-2.2082325302796764 pbc="F F F"
Ga       0.00000000       0.00000000       0.00000000       0.00000000       0.00000000       0.64914787
Ga       0.00000000       0.00000000       3.35454545       0.00000000       0.00000000      -0.64914787
2
Properties=species:S:1:pos:R:3:forces:R:3 energy=-2.1709342325437957 pbc="F F F"
Ga       0.00000000       0.00000000       0.00000000       0.00000000       0.00000000       0.61901271
Ga       0.00000000       0.00000000       3.41333333       0.00000000       0.00000000      -0.61901271
2
Properties=species:S:1:pos:R:3:forces:R:3 energy=-2.135509016527504 pbc="F F F"
Ga       0.00000000       0.00000000       0.00000000       0.00000000       0.00000000       0.58595330
Ga       0.00000000       0.00000000       3.47212121       0.00000000       0.00000000      -0.58595330
2
Properties=species:S:1:pos:R:3:forces:R:3 energy=-2.102041483709772 pbc="F F F"
Ga       0.00000000       0.00000000       0.00000000       0.00000000       0.00000000       0.55279231
Ga       0.00000000       0.00000000       3.53090909       0.00000000       0.00000000      -0.55279231
2
Properties=species:S:1:pos:R:3:forces:R:3 energy=-2.070484177658725 pbc="F F F"
Ga       0.00000000       0.00000000       0.00000000       0.00000000       0.00000000       0.52110702
Ga       0.00000000       0.00000000       3.58969697       0.00000000       0.00000000      -0.52110702
2
Properties=species:S:1:pos:R:3:forces:R:3 energy=-2.0407426524592673 pbc="F F F"
Ga       0.00000000       0.00000000       0.00000000       0.00000000       0.00000000       0.49092823
Ga       0.00000000       0.00000000       3.64848485       0.00000000       0.00000000      -0.49092823
2
Properties=species:S:1:pos:R:3:forces:R:3 energy=-2.0127457418457078 pbc="F F F"
Ga       0.00000000       0.00000000       0.00000000       0.00000000       0.00000000       0.46160507
Ga       0.00000000       0.00000000       3.70727273       0.00000000       0.00000000      -0.46160507
2
Properties=species:S:1:pos:R:3:forces:R:3 energy=-1.986458457483771 pbc="F F F"
Ga       0.00000000       0.00000000       0.00000000       0.00000000       0.00000000       0.43277588
Ga       0.00000000       0.00000000       3.76606061       0.00000000       0.00000000      -0.43277588
2
Properties=species:S:1:pos:R:3:forces:R:3 energy=-1.9618480811833758 pbc="F F F"
Ga       0.00000000       0.00000000       0.00000000       0.00000000       0.00000000       0.40465894
Ga       0.00000000       0.00000000       3.82484848       0.00000000       0.00000000      -0.40465894
2
Properties=species:S:1:pos:R:3:forces:R:3 energy=-1.9388571879212348 pbc="F F F"
Ga       0.00000000       0.00000000       0.00000000       0.00000000       0.00000000       0.37773791
Ga       0.00000000       0.00000000       3.88363636       0.00000000       0.00000000      -0.37773791
2
Properties=species:S:1:pos:R:3:forces:R:3 energy=-1.9174052569181905 pbc="F F F"
Ga       0.00000000       0.00000000       0.00000000       0.00000000       0.00000000       0.35234934
Ga       0.00000000       0.00000000       3.94242424       0.00000000       0.00000000      -0.35234934
2
Properties=species:S:1:pos:R:3:forces:R:3 energy=-1.8973987517438038 pbc="F F F"
Ga       0.00000000       0.00000000       0.00000000       0.00000000       0.00000000       0.32852197
Ga       0.00000000       0.00000000       4.00121212       0.00000000       0.00000000      -0.32852197
2
Properties=species:S:1:pos:R:3:forces:R:3 energy=-1.8787516940062439 pbc="F F F"
Ga       0.00000000       0.00000000       0.00000000       0.00000000       0.00000000       0.30611652
Ga       0.00000000       0.00000000       4.06000000       0.00000000       0.00000000      -0.30611652
2
Properties=species:S:1:pos:R:3:forces:R:3 energy=-1.8613814003282627 pbc="F F F"
Ga       0.00000000       0.00000000       0.00000000       0.00000000       0.00000000       0.28505620
Ga       0.00000000       0.00000000       4.11878788       0.00000000       0.00000000      -0.28505620
2
Properties=species:S:1:pos:R:3:forces:R:3 energy=-1.8452075635189238 pbc="F F F"
Ga       0.00000000       0.00000000       0.00000000       0.00000000       0.00000000       0.26543280
Ga       0.00000000       0.00000000       4.17757576       0.00000000       0.00000000      -0.26543280
2
Properties=species:S:1:pos:R:3:forces:R:3 energy=-1.830140751461005 pbc="F F F"
Ga       0.00000000       0.00000000       0.00000000       0.00000000       0.00000000       0.24745272
Ga       0.00000000       0.00000000       4.23636364       0.00000000       0.00000000      -0.24745272
2
Properties=species:S:1:pos:R:3:forces:R:3 energy=-1.8160776038933744 pbc="F F F"
Ga       0.00000000       0.00000000       0.00000000       0.00000000       0.00000000       0.23131193
Ga       0.00000000       0.00000000       4.29515152       0.00000000       0.00000000      -0.23131193
2
Properties=species:S:1:pos:R:3:forces:R:3 energy=-1.8029056514677253 pbc="F F F"
Ga       0.00000000       0.00000000       0.00000000       0.00000000       0.00000000       0.21709508
Ga       0.00000000       0.00000000       4.35393939       0.00000000       0.00000000      -0.21709508
2
Properties=species:S:1:pos:R:3:forces:R:3 energy=-1.790515501270607 pbc="F F F"
Ga       0.00000000       0.00000000       0.00000000       0.00000000       0.00000000       0.20472638
Ga       0.00000000       0.00000000       4.41272727       0.00000000       0.00000000      -0.20472638
2
Properties=species:S:1:pos:R:3:forces:R:3 energy=-1.7788032336805033 pbc="F F F"
Ga       0.00000000       0.00000000       0.00000000       0.00000000       0.00000000       0.19397554
Ga       0.00000000       0.00000000       4.47151515       0.00000000       0.00000000      -0.19397554
2
Properties=species:S:1:pos:R:3:forces:R:3 energy=-1.767683680948353 pbc="F F F"
Ga       0.00000000       0.00000000       0.00000000       0.00000000       0.00000000       0.18449309
Ga       0.00000000       0.00000000       4.53030303       0.00000000       0.00000000      -0.18449309
2
Properties=species:S:1:pos:R:3:forces:R:3 energy=-1.7570936320091275 pbc="F F F"
Ga       0.00000000       0.00000000       0.00000000       0.00000000       0.00000000       0.17587778
Ga       0.00000000       0.00000000       4.58909091       0.00000000       0.00000000      -0.17587778
2
Properties=species:S:1:pos:R:3:forces:R:3 energy=-1.7469946206448703 pbc="F F F"
Ga       0.00000000       0.00000000       0.00000000       0.00000000       0.00000000       0.16776368
Ga       0.00000000       0.00000000       4.64787879       0.00000000       0.00000000      -0.16776368
2
Properties=species:S:1:pos:R:3:forces:R:3 energy=-1.7373647749034982 pbc="F F F"
Ga       0.00000000       0.00000000       0.00000000       0.00000000       0.00000000       0.15989688
Ga       0.00000000       0.00000000       4.70666667       0.00000000       0.00000000      -0.15989688
2
Properties=species:S:1:pos:R:3:forces:R:3 energy=-1.7281929509169933 pbc="F F F"
Ga       0.00000000       0.00000000       0.00000000       0.00000000       0.00000000       0.15219662
Ga       0.00000000       0.00000000       4.76545455       0.00000000       0.00000000      -0.15219662
2
Properties=species:S:1:pos:R:3:forces:R:3 energy=-1.7194648808651511 pbc="F F F"
Ga       0.00000000       0.00000000       0.00000000       0.00000000       0.00000000       0.14475539
Ga       0.00000000       0.00000000       4.82424242       0.00000000       0.00000000      -0.14475539
2
Properties=species:S:1:pos:R:3:forces:R:3 energy=-1.7111635896241169 pbc="F F F"
Ga       0.00000000       0.00000000       0.00000000       0.00000000       0.00000000       0.13779315
Ga       0.00000000       0.00000000       4.88303030       0.00000000       0.00000000      -0.13779315
2
Properties=species:S:1:pos:R:3:forces:R:3 energy=-1.7032497795025452 pbc="F F F"
Ga       0.00000000       0.00000000       0.00000000       0.00000000       0.00000000       0.13155627
Ga       0.00000000       0.00000000       4.94181818       0.00000000       0.00000000      -0.13155627
2
Properties=species:S:1:pos:R:3:forces:R:3 energy=-1.695677995187647 pbc="F F F"
Ga       0.00000000       0.00000000       0.00000000       0.00000000       0.00000000       0.12619883
Ga       0.00000000       0.00000000       5.00060606       0.00000000       0.00000000      -0.12619883
2
Properties=species:S:1:pos:R:3:forces:R:3 energy=-1.6883952359993137 pbc="F F F"
Ga       0.00000000       0.00000000       0.00000000       0.00000000       0.00000000       0.12167605
Ga       0.00000000       0.00000000       5.05939394       0.00000000       0.00000000      -0.12167605
2
Properties=species:S:1:pos:R:3:forces:R:3 energy=-1.6813604523606274 pbc="F F F"
Ga       0.00000000       0.00000000       0.00000000       0.00000000       0.00000000       0.11770190
Ga       0.00000000       0.00000000       5.11818182       0.00000000       0.00000000      -0.11770190
2
Properties=species:S:1:pos:R:3:forces:R:3 energy=-1.6745545451229829 pbc="F F F"
Ga       0.00000000       0.00000000       0.00000000       0.00000000       0.00000000       0.11376962
Ga       0.00000000       0.00000000       5.17696970       0.00000000       0.00000000      -0.11376962
2
Properties=species:S:1:pos:R:3:forces:R:3 energy=-1.6679966366341767 pbc="F F F"
Ga       0.00000000       0.00000000       0.00000000       0.00000000       0.00000000       0.10924251
Ga       0.00000000       0.00000000       5.23575758       0.00000000       0.00000000      -0.10924251
2
Properties=species:S:1:pos:R:3:forces:R:3 energy=-1.6617350171680458 pbc="F F F"
Ga       0.00000000       0.00000000       0.00000000       0.00000000       0.00000000       0.10349390
Ga       0.00000000       0.00000000       5.29454545       0.00000000       0.00000000      -0.10349390
2
Properties=species:S:1:pos:R:3:forces:R:3 energy=-1.6558600512059598 pbc="F F F"
Ga       0.00000000       0.00000000       0.00000000       0.00000000       0.00000000       0.09606733
Ga       0.00000000       0.00000000       5.35333333       0.00000000       0.00000000      -0.09606733
2
Properties=species:S:1:pos:R:3:forces:R:3 energy=-1.6504765113781794 pbc="F F F"
Ga       0.00000000       0.00000000       0.00000000       0.00000000       0.00000000       0.08678661
Ga       0.00000000       0.00000000       5.41212121       0.00000000       0.00000000      -0.08678661
2
Properties=species:S:1:pos:R:3:forces:R:3 energy=-1.6456903347293792 pbc="F F F"
Ga       0.00000000       0.00000000       0.00000000       0.00000000       0.00000000       0.07583688
Ga       0.00000000       0.00000000       5.47090909       0.00000000       0.00000000      -0.07583688
2
Properties=species:S:1:pos:R:3:forces:R:3 energy=-1.6415814144902314 pbc="F F F"
Ga       0.00000000       0.00000000       0.00000000       0.00000000       0.00000000       0.06373598
Ga       0.00000000       0.00000000       5.52969697       0.00000000       0.00000000      -0.06373598
2
Properties=species:S:1:pos:R:3:forces:R:3 energy=-1.6382027065917097 pbc="F F F"
Ga       0.00000000       0.00000000       0.00000000       0.00000000       0.00000000       0.05126388
Ga       0.00000000       0.00000000       5.58848485       0.00000000       0.00000000      -0.05126388
2
Properties=species:S:1:pos:R:3:forces:R:3 energy=-1.6355445254829342 pbc="F F F"
Ga       0.00000000       0.00000000       0.00000000       0.00000000       0.00000000       0.03932631
Ga       0.00000000       0.00000000       5.64727273       0.00000000       0.00000000      -0.03932631
2
Properties=species:S:1:pos:R:3:forces:R:3 energy=-1.633551696805622 pbc="F F F"
Ga       0.00000000       0.00000000       0.00000000       0.00000000       0.00000000       0.02879415
Ga       0.00000000       0.00000000       5.70606061       0.00000000       0.00000000      -0.02879415
2
Properties=species:S:1:pos:R:3:forces:R:3 energy=-1.6321178868252992 pbc="F F F"
Ga       0.00000000       0.00000000       0.00000000       0.00000000       0.00000000       0.02032936
Ga       0.00000000       0.00000000       5.76484848       0.00000000       0.00000000      -0.02032936
2
Properties=species:S:1:pos:R:3:forces:R:3 energy=-1.6311128510494501 pbc="F F F"
Ga       0.00000000       0.00000000       0.00000000       0.00000000       0.00000000       0.01429165
Ga       0.00000000       0.00000000       5.82363636       0.00000000       0.00000000      -0.01429165
2
Properties=species:S:1:pos:R:3:forces:R:3 energy=-1.630391442656413 pbc="F F F"
Ga       0.00000000       0.00000000       0.00000000       0.00000000       0.00000000       0.01062638
Ga       0.00000000       0.00000000       5.88242424       0.00000000       0.00000000      -0.01062638
2
Properties=species:S:1:pos:R:3:forces:R:3 energy=-1.6298256334448893 pbc="F F F"
Ga       0.00000000       0.00000000       0.00000000       0.00000000       0.00000000       0.00887003
Ga       0.00000000       0.00000000       5.94121212       0.00000000       0.00000000      -0.00887003
2
Properties=species:S:1:pos:R:3:forces:R:3 energy=-1.6293269505229562 pbc="F F F"
Ga       0.00000000       0.00000000       0.00000000       0.00000000       0.00000000       0.00820687
Ga       0.00000000       0.00000000       6.00000000       0.00000000       0.00000000      -0.00820687
