2
Properties=species:S:1:pos:R:3:forces:R:3 energy=-8198464.102357516 pbc="F F F"
Gd       0.00000000       0.00000000       0.00000000       0.00000000       0.00000000 84703464.00000000
Gd       0.00000000       0.00000000       0.18000000       0.00000000       0.00000000 -84703464.00000000
2
Properties=species:S:1:pos:R:3:forces:R:3 energy=-3949887.352357516 pbc="F F F"
Gd       0.00000000       0.00000000       0.00000000       0.00000000       0.00000000 57995260.00000000
Gd       0.00000000       0.00000000       0.23878788       0.00000000       0.00000000 -57995260.00000000
2
Properties=species:S:1:pos:R:3:forces:R:3 energy=-1441666.727357516 pbc="F F F"
Gd       0.00000000       0.00000000       0.00000000       0.00000000       0.00000000 27465140.00000000
Gd       0.00000000       0.00000000       0.29757576       0.00000000       0.00000000 -27465140.00000000
2
Properties=species:S:1:pos:R:3:forces:R:3 energy=-393341.9461075162 pbc="F F F"
Gd       0.00000000       0.00000000       0.00000000       0.00000000       0.00000000 9924901.00000000
Gd       0.00000000       0.00000000       0.35636364       0.00000000       0.00000000 -9924901.00000000
2
Properties=species:S:1:pos:R:3:forces:R:3 energy=-71033.31329500982 pbc="F F F"
Gd       0.00000000       0.00000000       0.00000000       0.00000000       0.00000000 2425834.50000000
Gd       0.00000000       0.00000000       0.41515152       0.00000000       0.00000000 -2425834.50000000
2
Properties=species:S:1:pos:R:3:forces:R:3 energy=-6574.014466878486 pbc="F F F"
Gd       0.00000000       0.00000000       0.00000000       0.00000000       0.00000000  310973.50000000
Gd       0.00000000       0.00000000       0.47393939       0.00000000       0.00000000 -310973.50000000
2
Properties=species:S:1:pos:R:3:forces:R:3 energy=-198.65786895908852 pbc="F F F"
Gd       0.00000000       0.00000000       0.00000000       0.00000000       0.00000000   14739.78417969
Gd       0.00000000       0.00000000       0.53272727       0.00000000       0.00000000  -14739.78417969
2
Properties=species:S:1:pos:R:3:forces:R:3 energy=288.4144882566597 pbc="F F F"
Gd       0.00000000       0.00000000       0.00000000       0.00000000       0.00000000   16311.00390625
Gd       0.00000000       0.00000000       0.59151515       0.00000000       0.00000000  -16311.00390625
2
Properties=species:S:1:pos:R:3:forces:R:3 energy=829.4304795182824 pbc="F F F"
Gd       0.00000000       0.00000000       0.00000000       0.00000000       0.00000000    4239.94140625
Gd       0.00000000       0.00000000       0.65030303       0.00000000       0.00000000   -4239.94140625
2
Properties=species:S:1:pos:R:3:forces:R:3 energy=927.0546251084583 pbc="F F F"
Gd       0.00000000       0.00000000       0.00000000       0.00000000       0.00000000      20.73347282
Gd       0.00000000       0.00000000       0.70909091       0.00000000       0.00000000     -20.73347282
2
Properties=species:S:1:pos:R:3:forces:R:3 energy=804.0467517126862 pbc="F F F"
Gd       0.00000000       0.00000000       0.00000000       0.00000000       0.00000000   -3031.21704102
Gd       0.00000000       0.00000000       0.76787879       0.00000000       0.00000000    3031.21704102
2
Properties=species:S:1:pos:R:3:forces:R:3 energy=612.8219594222868 pbc="F F F"
Gd       0.00000000       0.00000000       0.00000000       0.00000000       0.00000000   -3495.04296875
Gd       0.00000000       0.00000000       0.82666667       0.00000000       0.00000000    3495.04296875
2
Properties=species:S:1:pos:R:3:forces:R:3 energy=383.3287956385551 pbc="F F F"
Gd       0.00000000       0.00000000       0.00000000       0.00000000       0.00000000   -3555.86376953
Gd       0.00000000       0.00000000       0.88545455       0.00000000       0.00000000    3555.86376953
2
Properties=species:S:1:pos:R:3:forces:R:3 energy=210.42280541810783 pbc="F F F"
Gd       0.00000000       0.00000000       0.00000000       0.00000000       0.00000000   -2345.40600586
Gd       0.00000000       0.00000000       0.94424242       0.00000000       0.00000000    2345.40600586
2
Properties=species:S:1:pos:R:3:forces:R:3 energy=102.09704606894226 pbc="F F F"
Gd       0.00000000       0.00000000       0.00000000       0.00000000       0.00000000   -1393.39855957
Gd       0.00000000       0.00000000       1.00303030       0.00000000       0.00000000    1393.39855957
2
Properties=species:S:1:pos:R:3:forces:R:3 energy=45.043980531207964 pbc="F F F"
Gd       0.00000000       0.00000000       0.00000000       0.00000000       0.00000000    -649.21228027
Gd       0.00000000       0.00000000       1.06181818       0.00000000       0.00000000     649.21228027
2
Properties=species:S:1:pos:R:3:forces:R:3 energy=16.518266619958318 pbc="F F F"
Gd       0.00000000       0.00000000       0.00000000       0.00000000       0.00000000    -346.26394653
Gd       0.00000000       0.00000000       1.12060606       0.00000000       0.00000000     346.26394653
2
Properties=species:S:1:pos:R:3:forces:R:3 energy=1.0818245392228223 pbc="F F F"
Gd       0.00000000       0.00000000       0.00000000       0.00000000       0.00000000    -188.54144287
Gd       0.00000000       0.00000000       1.17939394       0.00000000       0.00000000     188.54144287
2
Properties=species:S:1:pos:R:3:forces:R:3 energy=-7.539456422702531 pbc="F F F"
Gd       0.00000000       0.00000000       0.00000000       0.00000000       0.00000000    -106.11077118
Gd       0.00000000       0.00000000       1.23818182       0.00000000       0.00000000     106.11077118
2
Properties=species:S:1:pos:R:3:forces:R:3 energy=-12.457928548334541 pbc="F F F"
Gd       0.00000000       0.00000000       0.00000000       0.00000000       0.00000000     -64.68482971
Gd       0.00000000       0.00000000       1.29696970       0.00000000       0.00000000      64.68482971
2
Properties=species:S:1:pos:R:3:forces:R:3 energy=-15.346388004699483 pbc="F F F"
Gd       0.00000000       0.00000000       0.00000000       0.00000000       0.00000000     -36.07125092
Gd       0.00000000       0.00000000       1.35575758       0.00000000       0.00000000      36.07125092
2
Properties=species:S:1:pos:R:3:forces:R:3 energy=-17.036055279244234 pbc="F F F"
Gd       0.00000000       0.00000000       0.00000000       0.00000000       0.00000000     -23.18799782
Gd       0.00000000       0.00000000       1.41454545       0.00000000       0.00000000      23.18799782
2
Properties=species:S:1:pos:R:3:forces:R:3 energy=-18.14280742842339 pbc="F F F"
Gd       0.00000000       0.00000000       0.00000000       0.00000000       0.00000000     -13.34055710
Gd       0.00000000       0.00000000       1.47333333       0.00000000       0.00000000      13.34055710
2
Properties=species:S:1:pos:R:3:forces:R:3 energy=-18.56101338753383 pbc="F F F"
Gd       0.00000000       0.00000000       0.00000000       0.00000000       0.00000000      -2.14044261
Gd       0.00000000       0.00000000       1.53212121       0.00000000       0.00000000       2.14044261
2
Properties=species:S:1:pos:R:3:forces:R:3 energy=-18.53231310179812 pbc="F F F"
Gd       0.00000000       0.00000000       0.00000000       0.00000000       0.00000000       2.17914438
Gd       0.00000000       0.00000000       1.59090909       0.00000000       0.00000000      -2.17914438
2
Properties=species:S:1:pos:R:3:forces:R:3 energy=-18.350344591510115 pbc="F F F"
Gd       0.00000000       0.00000000       0.00000000       0.00000000       0.00000000       3.79663181
Gd       0.00000000       0.00000000       1.64969697       0.00000000       0.00000000      -3.79663181
2
Properties=species:S:1:pos:R:3:forces:R:3 energy=-18.164464470627635 pbc="F F F"
Gd       0.00000000       0.00000000       0.00000000       0.00000000       0.00000000       1.95976412
Gd       0.00000000       0.00000000       1.70848485       0.00000000       0.00000000      -1.95976412
2
Properties=species:S:1:pos:R:3:forces:R:3 energy=-18.11693780554913 pbc="F F F"
Gd       0.00000000       0.00000000       0.00000000       0.00000000       0.00000000      -0.15166545
Gd       0.00000000       0.00000000       1.76727273       0.00000000       0.00000000       0.15166545
2
Properties=species:S:1:pos:R:3:forces:R:3 energy=-18.185396827417968 pbc="F F F"
Gd       0.00000000       0.00000000       0.00000000       0.00000000       0.00000000      -2.32707834
Gd       0.00000000       0.00000000       1.82606061       0.00000000       0.00000000       2.32707834
2
Properties=species:S:1:pos:R:3:forces:R:3 energy=-18.372225411578594 pbc="F F F"
Gd       0.00000000       0.00000000       0.00000000       0.00000000       0.00000000      -3.93672943
Gd       0.00000000       0.00000000       1.88484848       0.00000000       0.00000000       3.93672943
2
Properties=species:S:1:pos:R:3:forces:R:3 energy=-18.6508061340571 pbc="F F F"
Gd       0.00000000       0.00000000       0.00000000       0.00000000       0.00000000      -5.48459101
Gd       0.00000000       0.00000000       1.94363636       0.00000000       0.00000000       5.48459101
2
Properties=species:S:1:pos:R:3:forces:R:3 energy=-19.006997500272927 pbc="F F F"
Gd       0.00000000       0.00000000       0.00000000       0.00000000       0.00000000      -6.57291031
Gd       0.00000000       0.00000000       2.00242424       0.00000000       0.00000000       6.57291031
2
Properties=species:S:1:pos:R:3:forces:R:3 energy=-19.420413330879125 pbc="F F F"
Gd       0.00000000       0.00000000       0.00000000       0.00000000       0.00000000      -7.41367388
Gd       0.00000000       0.00000000       2.06121212       0.00000000       0.00000000       7.41367388
2
Properties=species:S:1:pos:R:3:forces:R:3 energy=-19.860102566423855 pbc="F F F"
Gd       0.00000000       0.00000000       0.00000000       0.00000000       0.00000000      -7.39766312
Gd       0.00000000       0.00000000       2.12000000       0.00000000       0.00000000       7.39766312
2
Properties=species:S:1:pos:R:3:forces:R:3 energy=-20.285293177666706 pbc="F F F"
Gd       0.00000000       0.00000000       0.00000000       0.00000000       0.00000000      -7.09988928
Gd       0.00000000       0.00000000       2.17878788       0.00000000       0.00000000       7.09988928
2
Properties=species:S:1:pos:R:3:forces:R:3 energy=-20.69530932962724 pbc="F F F"
Gd       0.00000000       0.00000000       0.00000000       0.00000000       0.00000000      -6.81712770
Gd       0.00000000       0.00000000       2.23757576       0.00000000       0.00000000       6.81712770
2
Properties=species:S:1:pos:R:3:forces:R:3 energy=-21.08390570397461 pbc="F F F"
Gd       0.00000000       0.00000000       0.00000000       0.00000000       0.00000000      -6.37267113
Gd       0.00000000       0.00000000       2.29636364       0.00000000       0.00000000       6.37267113
2
Properties=species:S:1:pos:R:3:forces:R:3 energy=-21.438748617836104 pbc="F F F"
Gd       0.00000000       0.00000000       0.00000000       0.00000000       0.00000000      -5.65790510
Gd       0.00000000       0.00000000       2.35515152       0.00000000       0.00000000       5.65790510
2
Properties=species:S:1:pos:R:3:forces:R:3 energy=-21.748623982979517 pbc="F F F"
Gd       0.00000000       0.00000000       0.00000000       0.00000000       0.00000000      -4.90236378
Gd       0.00000000       0.00000000       2.41393939       0.00000000       0.00000000       4.90236378
2
Properties=species:S:1:pos:R:3:forces:R:3 energy=-22.017254056945898 pbc="F F F"
Gd       0.00000000       0.00000000       0.00000000       0.00000000       0.00000000      -4.25245571
Gd       0.00000000       0.00000000       2.47272727       0.00000000       0.00000000       4.25245571
2
Properties=species:S:1:pos:R:3:forces:R:3 energy=-22.250089041096025 pbc="F F F"
Gd       0.00000000       0.00000000       0.00000000       0.00000000       0.00000000      -3.67946625
Gd       0.00000000       0.00000000       2.53151515       0.00000000       0.00000000       3.67946625
2
Properties=species:S:1:pos:R:3:forces:R:3 energy=-22.451697903708457 pbc="F F F"
Gd       0.00000000       0.00000000       0.00000000       0.00000000       0.00000000      -3.20066452
Gd       0.00000000       0.00000000       2.59030303       0.00000000       0.00000000       3.20066452
2
Properties=species:S:1:pos:R:3:forces:R:3 energy=-22.628997419844563 pbc="F F F"
Gd       0.00000000       0.00000000       0.00000000       0.00000000       0.00000000      -2.84994006
Gd       0.00000000       0.00000000       2.64909091       0.00000000       0.00000000       2.84994006
2
Properties=species:S:1:pos:R:3:forces:R:3 energy=-22.788175751052336 pbc="F F F"
Gd       0.00000000       0.00000000       0.00000000       0.00000000       0.00000000      -2.57012391
Gd       0.00000000       0.00000000       2.70787879       0.00000000       0.00000000       2.57012391
2
Properties=species:S:1:pos:R:3:forces:R:3 energy=-22.931224689146966 pbc="F F F"
Gd       0.00000000       0.00000000       0.00000000       0.00000000       0.00000000      -2.29539347
Gd       0.00000000       0.00000000       2.76666667       0.00000000       0.00000000       2.29539347
2
Properties=species:S:1:pos:R:3:forces:R:3 energy=-23.058083680800866 pbc="F F F"
Gd       0.00000000       0.00000000       0.00000000       0.00000000       0.00000000      -2.02225280
Gd       0.00000000       0.00000000       2.82545455       0.00000000       0.00000000       2.02225280
2
Properties=species:S:1:pos:R:3:forces:R:3 energy=-23.169395882961652 pbc="F F F"
Gd       0.00000000       0.00000000       0.00000000       0.00000000       0.00000000      -1.76900303
Gd       0.00000000       0.00000000       2.88424242       0.00000000       0.00000000       1.76900303
2
Properties=species:S:1:pos:R:3:forces:R:3 energy=-23.266592041842475 pbc="F F F"
Gd       0.00000000       0.00000000       0.00000000       0.00000000       0.00000000      -1.54193938
Gd       0.00000000       0.00000000       2.94303030       0.00000000       0.00000000       1.54193938
2
Properties=species:S:1:pos:R:3:forces:R:3 energy=-23.351093328899452 pbc="F F F"
Gd       0.00000000       0.00000000       0.00000000       0.00000000       0.00000000      -1.33570850
Gd       0.00000000       0.00000000       3.00181818       0.00000000       0.00000000       1.33570850
2
Properties=species:S:1:pos:R:3:forces:R:3 energy=-23.42395445122543 pbc="F F F"
Gd       0.00000000       0.00000000       0.00000000       0.00000000       0.00000000      -1.14576137
Gd       0.00000000       0.00000000       3.06060606       0.00000000       0.00000000       1.14576137
2
Properties=species:S:1:pos:R:3:forces:R:3 energy=-23.48620924911989 pbc="F F F"
Gd       0.00000000       0.00000000       0.00000000       0.00000000       0.00000000      -0.97613198
Gd       0.00000000       0.00000000       3.11939394       0.00000000       0.00000000       0.97613198
2
Properties=species:S:1:pos:R:3:forces:R:3 energy=-23.539171613677837 pbc="F F F"
Gd       0.00000000       0.00000000       0.00000000       0.00000000       0.00000000      -0.82905883
Gd       0.00000000       0.00000000       3.17818182       0.00000000       0.00000000       0.82905883
2
Properties=species:S:1:pos:R:3:forces:R:3 energy=-23.58403333400355 pbc="F F F"
Gd       0.00000000       0.00000000       0.00000000       0.00000000       0.00000000      -0.69960326
Gd       0.00000000       0.00000000       3.23696970       0.00000000       0.00000000       0.69960326
2
Properties=species:S:1:pos:R:3:forces:R:3 energy=-23.62166950330053 pbc="F F F"
Gd       0.00000000       0.00000000       0.00000000       0.00000000       0.00000000      -0.58263737
Gd       0.00000000       0.00000000       3.29575758       0.00000000       0.00000000       0.58263737
2
Properties=species:S:1:pos:R:3:forces:R:3 energy=-23.65275479111038 pbc="F F F"
Gd       0.00000000       0.00000000       0.00000000       0.00000000       0.00000000      -0.47683683
Gd       0.00000000       0.00000000       3.35454545       0.00000000       0.00000000       0.47683683
2
Properties=species:S:1:pos:R:3:forces:R:3 energy=-23.677971388663263 pbc="F F F"
Gd       0.00000000       0.00000000       0.00000000       0.00000000       0.00000000      -0.38301876
Gd       0.00000000       0.00000000       3.41333333       0.00000000       0.00000000       0.38301876
2
Properties=species:S:1:pos:R:3:forces:R:3 energy=-23.698003312174613 pbc="F F F"
Gd       0.00000000       0.00000000       0.00000000       0.00000000       0.00000000      -0.30018157
Gd       0.00000000       0.00000000       3.47212121       0.00000000       0.00000000       0.30018157
2
Properties=species:S:1:pos:R:3:forces:R:3 energy=-23.713400987427832 pbc="F F F"
Gd       0.00000000       0.00000000       0.00000000       0.00000000       0.00000000      -0.22444716
Gd       0.00000000       0.00000000       3.53090909       0.00000000       0.00000000       0.22444716
2
Properties=species:S:1:pos:R:3:forces:R:3 energy=-23.724457386154757 pbc="F F F"
Gd       0.00000000       0.00000000       0.00000000       0.00000000       0.00000000      -0.15207322
Gd       0.00000000       0.00000000       3.58969697       0.00000000       0.00000000       0.15207322
2
Properties=species:S:1:pos:R:3:forces:R:3 energy=-23.731322295891232 pbc="F F F"
Gd       0.00000000       0.00000000       0.00000000       0.00000000       0.00000000      -0.08189030
Gd       0.00000000       0.00000000       3.64848485       0.00000000       0.00000000       0.08189030
2
Properties=species:S:1:pos:R:3:forces:R:3 energy=-23.734147639604934 pbc="F F F"
Gd       0.00000000       0.00000000       0.00000000       0.00000000       0.00000000      -0.01488608
Gd       0.00000000       0.00000000       3.70727273       0.00000000       0.00000000       0.01488608
2
Properties=species:S:1:pos:R:3:forces:R:3 energy=-23.73316904819147 pbc="F F F"
Gd       0.00000000       0.00000000       0.00000000       0.00000000       0.00000000       0.04736269
Gd       0.00000000       0.00000000       3.76606061       0.00000000       0.00000000      -0.04736269
2
Properties=species:S:1:pos:R:3:forces:R:3 energy=-23.728694821863833 pbc="F F F"
Gd       0.00000000       0.00000000       0.00000000       0.00000000       0.00000000       0.10365559
Gd       0.00000000       0.00000000       3.82484848       0.00000000       0.00000000      -0.10365559
2
Properties=species:S:1:pos:R:3:forces:R:3 energy=-23.721109580122896 pbc="F F F"
Gd       0.00000000       0.00000000       0.00000000       0.00000000       0.00000000       0.15334323
Gd       0.00000000       0.00000000       3.88363636       0.00000000       0.00000000      -0.15334323
2
Properties=species:S:1:pos:R:3:forces:R:3 energy=-23.710800014544922 pbc="F F F"
Gd       0.00000000       0.00000000       0.00000000       0.00000000       0.00000000       0.19620308
Gd       0.00000000       0.00000000       3.94242424       0.00000000       0.00000000      -0.19620308
2
Properties=species:S:1:pos:R:3:forces:R:3 energy=-23.69817202324103 pbc="F F F"
Gd       0.00000000       0.00000000       0.00000000       0.00000000       0.00000000       0.23235193
Gd       0.00000000       0.00000000       4.00121212       0.00000000       0.00000000      -0.23235193
2
Properties=species:S:1:pos:R:3:forces:R:3 energy=-23.683605004182095 pbc="F F F"
Gd       0.00000000       0.00000000       0.00000000       0.00000000       0.00000000       0.26219442
Gd       0.00000000       0.00000000       4.06000000       0.00000000       0.00000000      -0.26219442
2
Properties=species:S:1:pos:R:3:forces:R:3 energy=-23.667457665943672 pbc="F F F"
Gd       0.00000000       0.00000000       0.00000000       0.00000000       0.00000000       0.28631175
Gd       0.00000000       0.00000000       4.11878788       0.00000000       0.00000000      -0.28631175
2
Properties=species:S:1:pos:R:3:forces:R:3 energy=-23.650045139522405 pbc="F F F"
Gd       0.00000000       0.00000000       0.00000000       0.00000000       0.00000000       0.30523750
Gd       0.00000000       0.00000000       4.17757576       0.00000000       0.00000000      -0.30523750
2
Properties=species:S:1:pos:R:3:forces:R:3 energy=-23.631663818217742 pbc="F F F"
Gd       0.00000000       0.00000000       0.00000000       0.00000000       0.00000000       0.31928751
Gd       0.00000000       0.00000000       4.23636364       0.00000000       0.00000000      -0.31928751
2
Properties=species:S:1:pos:R:3:forces:R:3 energy=-23.612599075725516 pbc="F F F"
Gd       0.00000000       0.00000000       0.00000000       0.00000000       0.00000000       0.32854974
Gd       0.00000000       0.00000000       4.29515152       0.00000000       0.00000000      -0.32854974
2
Properties=species:S:1:pos:R:3:forces:R:3 energy=-23.593127268521222 pbc="F F F"
Gd       0.00000000       0.00000000       0.00000000       0.00000000       0.00000000       0.33305198
Gd       0.00000000       0.00000000       4.35393939       0.00000000       0.00000000      -0.33305198
2
Properties=species:S:1:pos:R:3:forces:R:3 energy=-23.57353089327878 pbc="F F F"
Gd       0.00000000       0.00000000       0.00000000       0.00000000       0.00000000       0.33295849
Gd       0.00000000       0.00000000       4.41272727       0.00000000       0.00000000      -0.33295849
2
Properties=species:S:1:pos:R:3:forces:R:3 energy=-23.554062486630677 pbc="F F F"
Gd       0.00000000       0.00000000       0.00000000       0.00000000       0.00000000       0.32870555
Gd       0.00000000       0.00000000       4.47151515       0.00000000       0.00000000      -0.32870555
2
Properties=species:S:1:pos:R:3:forces:R:3 energy=-23.53494850955733 pbc="F F F"
Gd       0.00000000       0.00000000       0.00000000       0.00000000       0.00000000       0.32099077
Gd       0.00000000       0.00000000       4.53030303       0.00000000       0.00000000      -0.32099077
2
Properties=species:S:1:pos:R:3:forces:R:3 energy=-23.516372086214727 pbc="F F F"
Gd       0.00000000       0.00000000       0.00000000       0.00000000       0.00000000       0.31067696
Gd       0.00000000       0.00000000       4.58909091       0.00000000       0.00000000      -0.31067696
2
Properties=species:S:1:pos:R:3:forces:R:3 energy=-23.498454044489684 pbc="F F F"
Gd       0.00000000       0.00000000       0.00000000       0.00000000       0.00000000       0.29867244
Gd       0.00000000       0.00000000       4.64787879       0.00000000       0.00000000      -0.29867244
2
Properties=species:S:1:pos:R:3:forces:R:3 energy=-23.48127195780796 pbc="F F F"
Gd       0.00000000       0.00000000       0.00000000       0.00000000       0.00000000       0.28583130
Gd       0.00000000       0.00000000       4.70666667       0.00000000       0.00000000      -0.28583130
2
Properties=species:S:1:pos:R:3:forces:R:3 energy=-23.464848688371173 pbc="F F F"
Gd       0.00000000       0.00000000       0.00000000       0.00000000       0.00000000       0.27290735
Gd       0.00000000       0.00000000       4.76545455       0.00000000       0.00000000      -0.27290735
2
Properties=species:S:1:pos:R:3:forces:R:3 energy=-23.44917334264918 pbc="F F F"
Gd       0.00000000       0.00000000       0.00000000       0.00000000       0.00000000       0.26051417
Gd       0.00000000       0.00000000       4.82424242       0.00000000       0.00000000      -0.26051417
2
Properties=species:S:1:pos:R:3:forces:R:3 energy=-23.434201277715722 pbc="F F F"
Gd       0.00000000       0.00000000       0.00000000       0.00000000       0.00000000       0.24910831
Gd       0.00000000       0.00000000       4.88303030       0.00000000       0.00000000      -0.24910831
2
Properties=species:S:1:pos:R:3:forces:R:3 energy=-23.419861572251854 pbc="F F F"
Gd       0.00000000       0.00000000       0.00000000       0.00000000       0.00000000       0.23892796
Gd       0.00000000       0.00000000       4.94181818       0.00000000       0.00000000      -0.23892796
2
Properties=species:S:1:pos:R:3:forces:R:3 energy=-23.406081847420737 pbc="F F F"
Gd       0.00000000       0.00000000       0.00000000       0.00000000       0.00000000       0.22995445
Gd       0.00000000       0.00000000       5.00060606       0.00000000       0.00000000      -0.22995445
2
Properties=species:S:1:pos:R:3:forces:R:3 energy=-23.39280539499147 pbc="F F F"
Gd       0.00000000       0.00000000       0.00000000       0.00000000       0.00000000       0.22187348
Gd       0.00000000       0.00000000       5.05939394       0.00000000       0.00000000      -0.22187348
2
Properties=species:S:1:pos:R:3:forces:R:3 energy=-23.379989067249856 pbc="F F F"
Gd       0.00000000       0.00000000       0.00000000       0.00000000       0.00000000       0.21408892
Gd       0.00000000       0.00000000       5.11818182       0.00000000       0.00000000      -0.21408892
2
Properties=species:S:1:pos:R:3:forces:R:3 energy=-23.36764332498402 pbc="F F F"
Gd       0.00000000       0.00000000       0.00000000       0.00000000       0.00000000       0.20580119
Gd       0.00000000       0.00000000       5.17696970       0.00000000       0.00000000      -0.20580119
2
Properties=species:S:1:pos:R:3:forces:R:3 energy=-23.355820666679755 pbc="F F F"
Gd       0.00000000       0.00000000       0.00000000       0.00000000       0.00000000       0.19617037
Gd       0.00000000       0.00000000       5.23575758       0.00000000       0.00000000      -0.19617037
2
Properties=species:S:1:pos:R:3:forces:R:3 energy=-23.344623194558583 pbc="F F F"
Gd       0.00000000       0.00000000       0.00000000       0.00000000       0.00000000       0.18446016
Gd       0.00000000       0.00000000       5.29454545       0.00000000       0.00000000      -0.18446016
2
Properties=species:S:1:pos:R:3:forces:R:3 energy=-23.33417962502387 pbc="F F F"
Gd       0.00000000       0.00000000       0.00000000       0.00000000       0.00000000       0.17023909
Gd       0.00000000       0.00000000       5.35333333       0.00000000       0.00000000      -0.17023909
2
Properties=species:S:1:pos:R:3:forces:R:3 energy=-23.32465469235546 pbc="F F F"
Gd       0.00000000       0.00000000       0.00000000       0.00000000       0.00000000       0.15348913
Gd       0.00000000       0.00000000       5.41212121       0.00000000       0.00000000      -0.15348913
2
Properties=species:S:1:pos:R:3:forces:R:3 energy=-23.31617474310605 pbc="F F F"
Gd       0.00000000       0.00000000       0.00000000       0.00000000       0.00000000       0.13465889
Gd       0.00000000       0.00000000       5.47090909       0.00000000       0.00000000      -0.13465889
2
Properties=species:S:1:pos:R:3:forces:R:3 energy=-23.308842896687775 pbc="F F F"
Gd       0.00000000       0.00000000       0.00000000       0.00000000       0.00000000       0.11461492
Gd       0.00000000       0.00000000       5.52969697       0.00000000       0.00000000      -0.11461492
2
Properties=species:S:1:pos:R:3:forces:R:3 energy=-23.30270078752578 pbc="F F F"
Gd       0.00000000       0.00000000       0.00000000       0.00000000       0.00000000       0.09452318
Gd       0.00000000       0.00000000       5.58848485       0.00000000       0.00000000      -0.09452318
2
Properties=species:S:1:pos:R:3:forces:R:3 energy=-23.29770959294219 pbc="F F F"
Gd       0.00000000       0.00000000       0.00000000       0.00000000       0.00000000       0.07566674
Gd       0.00000000       0.00000000       5.64727273       0.00000000       0.00000000      -0.07566674
2
Properties=species:S:1:pos:R:3:forces:R:3 energy=-23.29375742813181 pbc="F F F"
Gd       0.00000000       0.00000000       0.00000000       0.00000000       0.00000000       0.05924712
Gd       0.00000000       0.00000000       5.70606061       0.00000000       0.00000000      -0.05924712
2
Properties=species:S:1:pos:R:3:forces:R:3 energy=-23.290674696818026 pbc="F F F"
Gd       0.00000000       0.00000000       0.00000000       0.00000000       0.00000000       0.04614577
Gd       0.00000000       0.00000000       5.76484848       0.00000000       0.00000000      -0.04614577
2
Properties=species:S:1:pos:R:3:forces:R:3 energy=-23.288255113269457 pbc="F F F"
Gd       0.00000000       0.00000000       0.00000000       0.00000000       0.00000000       0.03682032
Gd       0.00000000       0.00000000       5.82363636       0.00000000       0.00000000      -0.03682032
2
Properties=species:S:1:pos:R:3:forces:R:3 energy=-23.286276521575992 pbc="F F F"
Gd       0.00000000       0.00000000       0.00000000       0.00000000       0.00000000       0.03111803
Gd       0.00000000       0.00000000       5.88242424       0.00000000       0.00000000      -0.03111803
2
Properties=species:S:1:pos:R:3:forces:R:3 energy=-23.28453916616649 pbc="F F F"
Gd       0.00000000       0.00000000       0.00000000       0.00000000       0.00000000       0.02829940
Gd       0.00000000       0.00000000       5.94121212       0.00000000       0.00000000      -0.02829940
2
Properties=species:S:1:pos:R:3:forces:R:3 energy=-23.282915289208894 pbc="F F F"
Gd       0.00000000       0.00000000       0.00000000       0.00000000       0.00000000       0.02710294
Gd       0.00000000       0.00000000       6.00000000       0.00000000       0.00000000      -0.02710294
