2
Properties=species:S:1:pos:R:3:forces:R:3 energy=106438.30863984473 pbc="F F F"
In       0.00000000       0.00000000       0.00000000       0.00000000       0.00000000 -2050940.00000000
In       0.00000000       0.00000000       0.18000000       0.00000000       0.00000000 2050940.00000000
2
Properties=species:S:1:pos:R:3:forces:R:3 energy=27053.759811719727 pbc="F F F"
In       0.00000000       0.00000000       0.00000000       0.00000000       0.00000000 -763176.06250000
In       0.00000000       0.00000000       0.23878788       0.00000000       0.00000000  763176.06250000
2
Properties=species:S:1:pos:R:3:forces:R:3 energy=1937.679977735353 pbc="F F F"
In       0.00000000       0.00000000       0.00000000       0.00000000       0.00000000  -90946.07031250
In       0.00000000       0.00000000       0.29757576       0.00000000       0.00000000   90946.07031250
2
Properties=species:S:1:pos:R:3:forces:R:3 energy=92.88537629492329 pbc="F F F"
In       0.00000000       0.00000000       0.00000000       0.00000000       0.00000000    -593.22369385
In       0.00000000       0.00000000       0.35636364       0.00000000       0.00000000     593.22369385
2
Properties=species:S:1:pos:R:3:forces:R:3 energy=62.092007008046046 pbc="F F F"
In       0.00000000       0.00000000       0.00000000       0.00000000       0.00000000    -464.48034668
In       0.00000000       0.00000000       0.41515152       0.00000000       0.00000000     464.48034668
2
Properties=species:S:1:pos:R:3:forces:R:3 energy=-10.069772389304834 pbc="F F F"
In       0.00000000       0.00000000       0.00000000       0.00000000       0.00000000     377.21093750
In       0.00000000       0.00000000       0.47393939       0.00000000       0.00000000    -377.21093750
2
Properties=species:S:1:pos:R:3:forces:R:3 energy=69.735550273629 pbc="F F F"
In       0.00000000       0.00000000       0.00000000       0.00000000       0.00000000    1905.34790039
In       0.00000000       0.00000000       0.53272727       0.00000000       0.00000000   -1905.34790039
2
Properties=species:S:1:pos:R:3:forces:R:3 energy=117.17372168569032 pbc="F F F"
In       0.00000000       0.00000000       0.00000000       0.00000000       0.00000000     156.45532227
In       0.00000000       0.00000000       0.59151515       0.00000000       0.00000000    -156.45532227
2
Properties=species:S:1:pos:R:3:forces:R:3 energy=111.71768993072344 pbc="F F F"
In       0.00000000       0.00000000       0.00000000       0.00000000       0.00000000    -191.12034607
In       0.00000000       0.00000000       0.65030303       0.00000000       0.00000000     191.12034607
2
Properties=species:S:1:pos:R:3:forces:R:3 energy=85.7107319894352 pbc="F F F"
In       0.00000000       0.00000000       0.00000000       0.00000000       0.00000000    -470.91818237
In       0.00000000       0.00000000       0.70909091       0.00000000       0.00000000     470.91818237
2
Properties=species:S:1:pos:R:3:forces:R:3 energy=63.47177563938949 pbc="F F F"
In       0.00000000       0.00000000       0.00000000       0.00000000       0.00000000    -290.24572754
In       0.00000000       0.00000000       0.76787879       0.00000000       0.00000000     290.24572754
2
Properties=species:S:1:pos:R:3:forces:R:3 energy=48.78564908246058 pbc="F F F"
In       0.00000000       0.00000000       0.00000000       0.00000000       0.00000000    -161.46368408
In       0.00000000       0.00000000       0.82666667       0.00000000       0.00000000     161.46368408
2
Properties=species:S:1:pos:R:3:forces:R:3 energy=48.43016910694851 pbc="F F F"
In       0.00000000       0.00000000       0.00000000       0.00000000       0.00000000      97.19522858
In       0.00000000       0.00000000       0.88545455       0.00000000       0.00000000     -97.19522858
2
Properties=species:S:1:pos:R:3:forces:R:3 energy=58.180695836114275 pbc="F F F"
In       0.00000000       0.00000000       0.00000000       0.00000000       0.00000000     187.81756592
In       0.00000000       0.00000000       0.94424242       0.00000000       0.00000000    -187.81756592
2
Properties=species:S:1:pos:R:3:forces:R:3 energy=67.53705764342695 pbc="F F F"
In       0.00000000       0.00000000       0.00000000       0.00000000       0.00000000     122.96851349
In       0.00000000       0.00000000       1.00303030       0.00000000       0.00000000    -122.96851349
2
Properties=species:S:1:pos:R:3:forces:R:3 energy=71.55207284940116 pbc="F F F"
In       0.00000000       0.00000000       0.00000000       0.00000000       0.00000000      -6.51440525
In       0.00000000       0.00000000       1.06181818       0.00000000       0.00000000       6.51440525
2
Properties=species:S:1:pos:R:3:forces:R:3 energy=66.28683769612827 pbc="F F F"
In       0.00000000       0.00000000       0.00000000       0.00000000       0.00000000    -168.01855469
In       0.00000000       0.00000000       1.12060606       0.00000000       0.00000000     168.01855469
2
Properties=species:S:1:pos:R:3:forces:R:3 energy=57.37054838861437 pbc="F F F"
In       0.00000000       0.00000000       0.00000000       0.00000000       0.00000000    -104.22750092
In       0.00000000       0.00000000       1.17939394       0.00000000       0.00000000     104.22750092
2
Properties=species:S:1:pos:R:3:forces:R:3 energy=52.68108127195416 pbc="F F F"
In       0.00000000       0.00000000       0.00000000       0.00000000       0.00000000     -80.60148621
In       0.00000000       0.00000000       1.23818182       0.00000000       0.00000000      80.60148621
2
Properties=species:S:1:pos:R:3:forces:R:3 energy=47.09839550961377 pbc="F F F"
In       0.00000000       0.00000000       0.00000000       0.00000000       0.00000000    -101.37780762
In       0.00000000       0.00000000       1.29696970       0.00000000       0.00000000     101.37780762
2
Properties=species:S:1:pos:R:3:forces:R:3 energy=41.15347033411506 pbc="F F F"
In       0.00000000       0.00000000       0.00000000       0.00000000       0.00000000    -100.09441376
In       0.00000000       0.00000000       1.35575758       0.00000000       0.00000000     100.09441376
2
Properties=species:S:1:pos:R:3:forces:R:3 energy=35.640872948647 pbc="F F F"
In       0.00000000       0.00000000       0.00000000       0.00000000       0.00000000     -85.38111115
In       0.00000000       0.00000000       1.41454545       0.00000000       0.00000000      85.38111115
2
Properties=species:S:1:pos:R:3:forces:R:3 energy=30.937716800032867 pbc="F F F"
In       0.00000000       0.00000000       0.00000000       0.00000000       0.00000000     -76.48527527
In       0.00000000       0.00000000       1.47333333       0.00000000       0.00000000      76.48527527
2
Properties=species:S:1:pos:R:3:forces:R:3 energy=26.387896957642536 pbc="F F F"
In       0.00000000       0.00000000       0.00000000       0.00000000       0.00000000     -78.04532623
In       0.00000000       0.00000000       1.53212121       0.00000000       0.00000000      78.04532623
2
Properties=species:S:1:pos:R:3:forces:R:3 energy=21.98683592730925 pbc="F F F"
In       0.00000000       0.00000000       0.00000000       0.00000000       0.00000000     -71.76739502
In       0.00000000       0.00000000       1.59090909       0.00000000       0.00000000      71.76739502
2
Properties=species:S:1:pos:R:3:forces:R:3 energy=17.85179192982007 pbc="F F F"
In       0.00000000       0.00000000       0.00000000       0.00000000       0.00000000     -67.91574097
In       0.00000000       0.00000000       1.64969697       0.00000000       0.00000000      67.91574097
2
Properties=species:S:1:pos:R:3:forces:R:3 energy=14.06366534116942 pbc="F F F"
In       0.00000000       0.00000000       0.00000000       0.00000000       0.00000000     -60.34771347
In       0.00000000       0.00000000       1.70848485       0.00000000       0.00000000      60.34771347
2
Properties=species:S:1:pos:R:3:forces:R:3 energy=10.818302915379457 pbc="F F F"
In       0.00000000       0.00000000       0.00000000       0.00000000       0.00000000     -50.55521774
In       0.00000000       0.00000000       1.76727273       0.00000000       0.00000000      50.55521774
2
Properties=species:S:1:pos:R:3:forces:R:3 energy=8.048034045718536 pbc="F F F"
In       0.00000000       0.00000000       0.00000000       0.00000000       0.00000000     -43.67498779
In       0.00000000       0.00000000       1.82606061       0.00000000       0.00000000      43.67498779
2
Properties=species:S:1:pos:R:3:forces:R:3 energy=5.71179139169783 pbc="F F F"
In       0.00000000       0.00000000       0.00000000       0.00000000       0.00000000     -35.91843414
In       0.00000000       0.00000000       1.88484848       0.00000000       0.00000000      35.91843414
2
Properties=species:S:1:pos:R:3:forces:R:3 energy=3.8086606647518955 pbc="F F F"
In       0.00000000       0.00000000       0.00000000       0.00000000       0.00000000     -28.89451599
In       0.00000000       0.00000000       1.94363636       0.00000000       0.00000000      28.89451599
2
Properties=species:S:1:pos:R:3:forces:R:3 energy=2.2958908472323345 pbc="F F F"
In       0.00000000       0.00000000       0.00000000       0.00000000       0.00000000     -22.74875069
In       0.00000000       0.00000000       2.00242424       0.00000000       0.00000000      22.74875069
2
Properties=species:S:1:pos:R:3:forces:R:3 energy=1.123735752058129 pbc="F F F"
In       0.00000000       0.00000000       0.00000000       0.00000000       0.00000000     -17.27265739
In       0.00000000       0.00000000       2.06121212       0.00000000       0.00000000      17.27265739
2
Properties=species:S:1:pos:R:3:forces:R:3 energy=0.233784132651971 pbc="F F F"
In       0.00000000       0.00000000       0.00000000       0.00000000       0.00000000     -13.25033665
In       0.00000000       0.00000000       2.12000000       0.00000000       0.00000000      13.25033665
2
Properties=species:S:1:pos:R:3:forces:R:3 energy=-0.456252856085714 pbc="F F F"
In       0.00000000       0.00000000       0.00000000       0.00000000       0.00000000     -10.39684963
In       0.00000000       0.00000000       2.17878788       0.00000000       0.00000000      10.39684963
2
Properties=species:S:1:pos:R:3:forces:R:3 energy=-1.003169032259431 pbc="F F F"
In       0.00000000       0.00000000       0.00000000       0.00000000       0.00000000      -8.29137993
In       0.00000000       0.00000000       2.23757576       0.00000000       0.00000000       8.29137993
2
Properties=species:S:1:pos:R:3:forces:R:3 energy=-1.4415218699430212 pbc="F F F"
In       0.00000000       0.00000000       0.00000000       0.00000000       0.00000000      -6.69619370
In       0.00000000       0.00000000       2.29636364       0.00000000       0.00000000       6.69619370
2
Properties=species:S:1:pos:R:3:forces:R:3 energy=-1.794869516105072 pbc="F F F"
In       0.00000000       0.00000000       0.00000000       0.00000000       0.00000000      -5.34546566
In       0.00000000       0.00000000       2.35515152       0.00000000       0.00000000       5.34546566
2
Properties=species:S:1:pos:R:3:forces:R:3 energy=-2.0738061866710775 pbc="F F F"
In       0.00000000       0.00000000       0.00000000       0.00000000       0.00000000      -4.18120670
In       0.00000000       0.00000000       2.41393939       0.00000000       0.00000000       4.18120670
2
Properties=species:S:1:pos:R:3:forces:R:3 energy=-2.290047560709909 pbc="F F F"
In       0.00000000       0.00000000       0.00000000       0.00000000       0.00000000      -3.20066142
In       0.00000000       0.00000000       2.47272727       0.00000000       0.00000000       3.20066142
2
Properties=species:S:1:pos:R:3:forces:R:3 energy=-2.452412575071945 pbc="F F F"
In       0.00000000       0.00000000       0.00000000       0.00000000       0.00000000      -2.33827186
In       0.00000000       0.00000000       2.53151515       0.00000000       0.00000000       2.33827186
2
Properties=species:S:1:pos:R:3:forces:R:3 energy=-2.5672447512000334 pbc="F F F"
In       0.00000000       0.00000000       0.00000000       0.00000000       0.00000000      -1.59389508
In       0.00000000       0.00000000       2.59030303       0.00000000       0.00000000       1.59389508
2
Properties=species:S:1:pos:R:3:forces:R:3 energy=-2.6429801327142286 pbc="F F F"
In       0.00000000       0.00000000       0.00000000       0.00000000       0.00000000      -1.00672698
In       0.00000000       0.00000000       2.64909091       0.00000000       0.00000000       1.00672698
2
Properties=species:S:1:pos:R:3:forces:R:3 energy=-2.6876951344866216 pbc="F F F"
In       0.00000000       0.00000000       0.00000000       0.00000000       0.00000000      -0.52602804
In       0.00000000       0.00000000       2.70787879       0.00000000       0.00000000       0.52602804
2
Properties=species:S:1:pos:R:3:forces:R:3 energy=-2.705863983441293 pbc="F F F"
In       0.00000000       0.00000000       0.00000000       0.00000000       0.00000000      -0.10138827
In       0.00000000       0.00000000       2.76666667       0.00000000       0.00000000       0.10138827
2
Properties=species:S:1:pos:R:3:forces:R:3 energy=-2.7010825154361164 pbc="F F F"
In       0.00000000       0.00000000       0.00000000       0.00000000       0.00000000       0.24842985
In       0.00000000       0.00000000       2.82545455       0.00000000       0.00000000      -0.24842985
2
Properties=species:S:1:pos:R:3:forces:R:3 energy=-2.678687595492063 pbc="F F F"
In       0.00000000       0.00000000       0.00000000       0.00000000       0.00000000       0.49581727
In       0.00000000       0.00000000       2.88424242       0.00000000       0.00000000      -0.49581727
2
Properties=species:S:1:pos:R:3:forces:R:3 energy=-2.6446947000940697 pbc="F F F"
In       0.00000000       0.00000000       0.00000000       0.00000000       0.00000000       0.64664143
In       0.00000000       0.00000000       2.94303030       0.00000000       0.00000000      -0.64664143
2
Properties=species:S:1:pos:R:3:forces:R:3 energy=-2.6039608718648246 pbc="F F F"
In       0.00000000       0.00000000       0.00000000       0.00000000       0.00000000       0.73105925
In       0.00000000       0.00000000       3.00181818       0.00000000       0.00000000      -0.73105925
2
Properties=species:S:1:pos:R:3:forces:R:3 energy=-2.559416931392889 pbc="F F F"
In       0.00000000       0.00000000       0.00000000       0.00000000       0.00000000       0.78025705
In       0.00000000       0.00000000       3.06060606       0.00000000       0.00000000      -0.78025705
2
Properties=species:S:1:pos:R:3:forces:R:3 energy=-2.512608822152293 pbc="F F F"
In       0.00000000       0.00000000       0.00000000       0.00000000       0.00000000       0.80928999
In       0.00000000       0.00000000       3.11939394       0.00000000       0.00000000      -0.80928999
2
Properties=species:S:1:pos:R:3:forces:R:3 energy=-2.4645963778945594 pbc="F F F"
In       0.00000000       0.00000000       0.00000000       0.00000000       0.00000000       0.82130986
In       0.00000000       0.00000000       3.17818182       0.00000000       0.00000000      -0.82130986
2
Properties=species:S:1:pos:R:3:forces:R:3 energy=-2.4163635066633447 pbc="F F F"
In       0.00000000       0.00000000       0.00000000       0.00000000       0.00000000       0.81691766
In       0.00000000       0.00000000       3.23696970       0.00000000       0.00000000      -0.81691766
2
Properties=species:S:1:pos:R:3:forces:R:3 energy=-2.368856825546363 pbc="F F F"
In       0.00000000       0.00000000       0.00000000       0.00000000       0.00000000       0.79677796
In       0.00000000       0.00000000       3.29575758       0.00000000       0.00000000      -0.79677796
2
Properties=species:S:1:pos:R:3:forces:R:3 energy=-2.3229458625591652 pbc="F F F"
In       0.00000000       0.00000000       0.00000000       0.00000000       0.00000000       0.76324290
In       0.00000000       0.00000000       3.35454545       0.00000000       0.00000000      -0.76324290
2
Properties=species:S:1:pos:R:3:forces:R:3 energy=-2.2792848202606546 pbc="F F F"
In       0.00000000       0.00000000       0.00000000       0.00000000       0.00000000       0.72124720
In       0.00000000       0.00000000       3.41333333       0.00000000       0.00000000      -0.72124720
2
Properties=species:S:1:pos:R:3:forces:R:3 energy=-2.23819079038473 pbc="F F F"
In       0.00000000       0.00000000       0.00000000       0.00000000       0.00000000       0.67685622
In       0.00000000       0.00000000       3.47212121       0.00000000       0.00000000      -0.67685622
2
Properties=species:S:1:pos:R:3:forces:R:3 energy=-2.199655255762611 pbc="F F F"
In       0.00000000       0.00000000       0.00000000       0.00000000       0.00000000       0.63483292
In       0.00000000       0.00000000       3.53090909       0.00000000       0.00000000      -0.63483292
2
Properties=species:S:1:pos:R:3:forces:R:3 energy=-2.163460008030471 pbc="F F F"
In       0.00000000       0.00000000       0.00000000       0.00000000       0.00000000       0.59730273
In       0.00000000       0.00000000       3.58969697       0.00000000       0.00000000      -0.59730273
2
Properties=species:S:1:pos:R:3:forces:R:3 energy=-2.1293407097497425 pbc="F F F"
In       0.00000000       0.00000000       0.00000000       0.00000000       0.00000000       0.56409568
In       0.00000000       0.00000000       3.64848485       0.00000000       0.00000000      -0.56409568
2
Properties=species:S:1:pos:R:3:forces:R:3 energy=-2.09707489412035 pbc="F F F"
In       0.00000000       0.00000000       0.00000000       0.00000000       0.00000000       0.53403151
In       0.00000000       0.00000000       3.70727273       0.00000000       0.00000000      -0.53403151
2
Properties=species:S:1:pos:R:3:forces:R:3 energy=-2.066510297270275 pbc="F F F"
In       0.00000000       0.00000000       0.00000000       0.00000000       0.00000000       0.50611007
In       0.00000000       0.00000000       3.76606061       0.00000000       0.00000000      -0.50611007
2
Properties=species:S:1:pos:R:3:forces:R:3 energy=-2.037534463165394 pbc="F F F"
In       0.00000000       0.00000000       0.00000000       0.00000000       0.00000000       0.47996059
In       0.00000000       0.00000000       3.82484848       0.00000000       0.00000000      -0.47996059
2
Properties=species:S:1:pos:R:3:forces:R:3 energy=-2.0100431693228877 pbc="F F F"
In       0.00000000       0.00000000       0.00000000       0.00000000       0.00000000       0.45558855
In       0.00000000       0.00000000       3.88363636       0.00000000       0.00000000      -0.45558855
2
Properties=species:S:1:pos:R:3:forces:R:3 energy=-1.983934156252564 pbc="F F F"
In       0.00000000       0.00000000       0.00000000       0.00000000       0.00000000       0.43294755
In       0.00000000       0.00000000       3.94242424       0.00000000       0.00000000      -0.43294755
2
Properties=species:S:1:pos:R:3:forces:R:3 energy=-1.9591117449572628 pbc="F F F"
In       0.00000000       0.00000000       0.00000000       0.00000000       0.00000000       0.41175696
In       0.00000000       0.00000000       4.00121212       0.00000000       0.00000000      -0.41175696
2
Properties=species:S:1:pos:R:3:forces:R:3 energy=-1.9355011972447143 pbc="F F F"
In       0.00000000       0.00000000       0.00000000       0.00000000       0.00000000       0.39165235
In       0.00000000       0.00000000       4.06000000       0.00000000       0.00000000      -0.39165235
2
Properties=species:S:1:pos:R:3:forces:R:3 energy=-1.9130444272010885 pbc="F F F"
In       0.00000000       0.00000000       0.00000000       0.00000000       0.00000000       0.37243131
In       0.00000000       0.00000000       4.11878788       0.00000000       0.00000000      -0.37243131
2
Properties=species:S:1:pos:R:3:forces:R:3 energy=-1.8916949380521026 pbc="F F F"
In       0.00000000       0.00000000       0.00000000       0.00000000       0.00000000       0.35412228
In       0.00000000       0.00000000       4.17757576       0.00000000       0.00000000      -0.35412228
2
Properties=species:S:1:pos:R:3:forces:R:3 energy=-1.8713881140433803 pbc="F F F"
In       0.00000000       0.00000000       0.00000000       0.00000000       0.00000000       0.33688900
In       0.00000000       0.00000000       4.23636364       0.00000000       0.00000000      -0.33688900
2
Properties=species:S:1:pos:R:3:forces:R:3 energy=-1.8520588752546756 pbc="F F F"
In       0.00000000       0.00000000       0.00000000       0.00000000       0.00000000       0.32089919
In       0.00000000       0.00000000       4.29515152       0.00000000       0.00000000      -0.32089919
2
Properties=species:S:1:pos:R:3:forces:R:3 energy=-1.833631634677233 pbc="F F F"
In       0.00000000       0.00000000       0.00000000       0.00000000       0.00000000       0.30625015
In       0.00000000       0.00000000       4.35393939       0.00000000       0.00000000      -0.30625015
2
Properties=species:S:1:pos:R:3:forces:R:3 energy=-1.8160250475784374 pbc="F F F"
In       0.00000000       0.00000000       0.00000000       0.00000000       0.00000000       0.29294872
In       0.00000000       0.00000000       4.41272727       0.00000000       0.00000000      -0.29294872
2
Properties=species:S:1:pos:R:3:forces:R:3 energy=-1.7991628417081815 pbc="F F F"
In       0.00000000       0.00000000       0.00000000       0.00000000       0.00000000       0.28089610
In       0.00000000       0.00000000       4.47151515       0.00000000       0.00000000      -0.28089610
2
Properties=species:S:1:pos:R:3:forces:R:3 energy=-1.782977692184753 pbc="F F F"
In       0.00000000       0.00000000       0.00000000       0.00000000       0.00000000       0.26987478
In       0.00000000       0.00000000       4.53030303       0.00000000       0.00000000      -0.26987478
2
Properties=species:S:1:pos:R:3:forces:R:3 energy=-1.7674183075279424 pbc="F F F"
In       0.00000000       0.00000000       0.00000000       0.00000000       0.00000000       0.25956655
In       0.00000000       0.00000000       4.58909091       0.00000000       0.00000000      -0.25956655
2
Properties=species:S:1:pos:R:3:forces:R:3 energy=-1.75245294891693 pbc="F F F"
In       0.00000000       0.00000000       0.00000000       0.00000000       0.00000000       0.24963006
In       0.00000000       0.00000000       4.64787879       0.00000000       0.00000000      -0.24963006
2
Properties=species:S:1:pos:R:3:forces:R:3 energy=-1.7380657168633302 pbc="F F F"
In       0.00000000       0.00000000       0.00000000       0.00000000       0.00000000       0.23979415
In       0.00000000       0.00000000       4.70666667       0.00000000       0.00000000      -0.23979415
2
Properties=species:S:1:pos:R:3:forces:R:3 energy=-1.7242582399800952 pbc="F F F"
In       0.00000000       0.00000000       0.00000000       0.00000000       0.00000000       0.22997214
In       0.00000000       0.00000000       4.76545455       0.00000000       0.00000000      -0.22997214
2
Properties=species:S:1:pos:R:3:forces:R:3 energy=-1.7110235217977243 pbc="F F F"
In       0.00000000       0.00000000       0.00000000       0.00000000       0.00000000       0.22028084
In       0.00000000       0.00000000       4.82424242       0.00000000       0.00000000      -0.22028084
2
Properties=species:S:1:pos:R:3:forces:R:3 energy=-1.698351065595761 pbc="F F F"
In       0.00000000       0.00000000       0.00000000       0.00000000       0.00000000       0.21100269
In       0.00000000       0.00000000       4.88303030       0.00000000       0.00000000      -0.21100269
2
Properties=species:S:1:pos:R:3:forces:R:3 energy=-1.6862007917430077 pbc="F F F"
In       0.00000000       0.00000000       0.00000000       0.00000000       0.00000000       0.20245278
In       0.00000000       0.00000000       4.94181818       0.00000000       0.00000000      -0.20245278
2
Properties=species:S:1:pos:R:3:forces:R:3 energy=-1.6745280494735764 pbc="F F F"
In       0.00000000       0.00000000       0.00000000       0.00000000       0.00000000       0.19480765
In       0.00000000       0.00000000       5.00060606       0.00000000       0.00000000      -0.19480765
2
Properties=species:S:1:pos:R:3:forces:R:3 energy=-1.6632804604245601 pbc="F F F"
In       0.00000000       0.00000000       0.00000000       0.00000000       0.00000000       0.18797258
In       0.00000000       0.00000000       5.05939394       0.00000000       0.00000000      -0.18797258
2
Properties=species:S:1:pos:R:3:forces:R:3 energy=-1.6524199806901165 pbc="F F F"
In       0.00000000       0.00000000       0.00000000       0.00000000       0.00000000       0.18151535
In       0.00000000       0.00000000       5.11818182       0.00000000       0.00000000      -0.18151535
2
Properties=species:S:1:pos:R:3:forces:R:3 energy=-1.6419457573268381 pbc="F F F"
In       0.00000000       0.00000000       0.00000000       0.00000000       0.00000000       0.17473227
In       0.00000000       0.00000000       5.17696970       0.00000000       0.00000000      -0.17473227
2
Properties=species:S:1:pos:R:3:forces:R:3 energy=-1.6318991208887152 pbc="F F F"
In       0.00000000       0.00000000       0.00000000       0.00000000       0.00000000       0.16677304
In       0.00000000       0.00000000       5.23575758       0.00000000       0.00000000      -0.16677304
2
Properties=species:S:1:pos:R:3:forces:R:3 energy=-1.6223761297449848 pbc="F F F"
In       0.00000000       0.00000000       0.00000000       0.00000000       0.00000000       0.15685178
In       0.00000000       0.00000000       5.29454545       0.00000000       0.00000000      -0.15685178
2
Properties=species:S:1:pos:R:3:forces:R:3 energy=-1.6135063904243685 pbc="F F F"
In       0.00000000       0.00000000       0.00000000       0.00000000       0.00000000       0.14445290
In       0.00000000       0.00000000       5.35333333       0.00000000       0.00000000      -0.14445290
2
Properties=species:S:1:pos:R:3:forces:R:3 energy=-1.6054419810705685 pbc="F F F"
In       0.00000000       0.00000000       0.00000000       0.00000000       0.00000000       0.12946634
In       0.00000000       0.00000000       5.41212121       0.00000000       0.00000000      -0.12946634
2
Properties=species:S:1:pos:R:3:forces:R:3 energy=-1.5983270288988087 pbc="F F F"
In       0.00000000       0.00000000       0.00000000       0.00000000       0.00000000       0.11227988
In       0.00000000       0.00000000       5.47090909       0.00000000       0.00000000      -0.11227988
2
Properties=species:S:1:pos:R:3:forces:R:3 energy=-1.5922673550085553 pbc="F F F"
In       0.00000000       0.00000000       0.00000000       0.00000000       0.00000000       0.09371901
In       0.00000000       0.00000000       5.52969697       0.00000000       0.00000000      -0.09371901
2
Properties=species:S:1:pos:R:3:forces:R:3 energy=-1.5873126167487521 pbc="F F F"
In       0.00000000       0.00000000       0.00000000       0.00000000       0.00000000       0.07492562
In       0.00000000       0.00000000       5.58848485       0.00000000       0.00000000      -0.07492562
2
Properties=species:S:1:pos:R:3:forces:R:3 energy=-1.5834368223346866 pbc="F F F"
In       0.00000000       0.00000000       0.00000000       0.00000000       0.00000000       0.05719678
In       0.00000000       0.00000000       5.64727273       0.00000000       0.00000000      -0.05719678
2
Properties=species:S:1:pos:R:3:forces:R:3 energy=-1.5805435142842 pbc="F F F"
In       0.00000000       0.00000000       0.00000000       0.00000000       0.00000000       0.04173379
In       0.00000000       0.00000000       5.70606061       0.00000000       0.00000000      -0.04173379
2
Properties=species:S:1:pos:R:3:forces:R:3 energy=-1.578468701716633 pbc="F F F"
In       0.00000000       0.00000000       0.00000000       0.00000000       0.00000000       0.02942379
In       0.00000000       0.00000000       5.76484848       0.00000000       0.00000000      -0.02942379
2
Properties=species:S:1:pos:R:3:forces:R:3 energy=-1.5770119133728202 pbc="F F F"
In       0.00000000       0.00000000       0.00000000       0.00000000       0.00000000       0.02073194
In       0.00000000       0.00000000       5.82363636       0.00000000       0.00000000      -0.02073194
2
Properties=species:S:1:pos:R:3:forces:R:3 energy=-1.575962369805814 pbc="F F F"
In       0.00000000       0.00000000       0.00000000       0.00000000       0.00000000       0.01552398
In       0.00000000       0.00000000       5.88242424       0.00000000       0.00000000      -0.01552398
2
Properties=species:S:1:pos:R:3:forces:R:3 energy=-1.5751319627564435 pbc="F F F"
In       0.00000000       0.00000000       0.00000000       0.00000000       0.00000000       0.01309464
In       0.00000000       0.00000000       5.94121212       0.00000000       0.00000000      -0.01309464
2
Properties=species:S:1:pos:R:3:forces:R:3 energy=-1.5743920191318281 pbc="F F F"
In       0.00000000       0.00000000       0.00000000       0.00000000       0.00000000       0.01224228
In       0.00000000       0.00000000       6.00000000       0.00000000       0.00000000      -0.01224228
