2
Properties=species:S:1:pos:R:3:forces:R:3 energy=-422344.0572744668 pbc="F F F"
Lu       0.00000000       0.00000000       0.00000000       0.00000000       0.00000000 3174054.75000000
Lu       0.00000000       0.00000000       0.18000000       0.00000000       0.00000000 -3174054.75000000
2
Properties=species:S:1:pos:R:3:forces:R:3 energy=-244724.99477446682 pbc="F F F"
Lu       0.00000000       0.00000000       0.00000000       0.00000000       0.00000000 2862424.25000000
Lu       0.00000000       0.00000000       0.23878788       0.00000000       0.00000000 -2862424.25000000
2
Properties=species:S:1:pos:R:3:forces:R:3 energy=-112527.8385244668 pbc="F F F"
Lu       0.00000000       0.00000000       0.00000000       0.00000000       0.00000000 1655399.25000000
Lu       0.00000000       0.00000000       0.29757576       0.00000000       0.00000000 -1655399.25000000
2
Properties=species:S:1:pos:R:3:forces:R:3 energy=-43705.78383696047 pbc="F F F"
Lu       0.00000000       0.00000000       0.00000000       0.00000000       0.00000000  758172.12500000
Lu       0.00000000       0.00000000       0.35636364       0.00000000       0.00000000 -758172.12500000
2
Properties=species:S:1:pos:R:3:forces:R:3 energy=-15558.18813383547 pbc="F F F"
Lu       0.00000000       0.00000000       0.00000000       0.00000000       0.00000000  295071.62500000
Lu       0.00000000       0.00000000       0.41515152       0.00000000       0.00000000 -295071.62500000
2
Properties=species:S:1:pos:R:3:forces:R:3 energy=-4598.6549306977995 pbc="F F F"
Lu       0.00000000       0.00000000       0.00000000       0.00000000       0.00000000  107543.54687500
Lu       0.00000000       0.00000000       0.47393939       0.00000000       0.00000000 -107543.54687500
2
Properties=species:S:1:pos:R:3:forces:R:3 energy=-1092.7269521695034 pbc="F F F"
Lu       0.00000000       0.00000000       0.00000000       0.00000000       0.00000000   28013.39453125
Lu       0.00000000       0.00000000       0.53272727       0.00000000       0.00000000  -28013.39453125
2
Properties=species:S:1:pos:R:3:forces:R:3 energy=-19.799515309211948 pbc="F F F"
Lu       0.00000000       0.00000000       0.00000000       0.00000000       0.00000000   32162.84570312
Lu       0.00000000       0.00000000       0.59151515       0.00000000       0.00000000  -32162.84570312
2
Properties=species:S:1:pos:R:3:forces:R:3 energy=851.340186584735 pbc="F F F"
Lu       0.00000000       0.00000000       0.00000000       0.00000000       0.00000000    -679.95935059
Lu       0.00000000       0.00000000       0.65030303       0.00000000       0.00000000     679.95935059
2
Properties=species:S:1:pos:R:3:forces:R:3 energy=640.507178841927 pbc="F F F"
Lu       0.00000000       0.00000000       0.00000000       0.00000000       0.00000000   -4670.52343750
Lu       0.00000000       0.00000000       0.70909091       0.00000000       0.00000000    4670.52343750
2
Properties=species:S:1:pos:R:3:forces:R:3 energy=364.39896362393733 pbc="F F F"
Lu       0.00000000       0.00000000       0.00000000       0.00000000       0.00000000   -3856.37084961
Lu       0.00000000       0.00000000       0.76787879       0.00000000       0.00000000    3856.37084961
2
Properties=species:S:1:pos:R:3:forces:R:3 energy=192.32367693610104 pbc="F F F"
Lu       0.00000000       0.00000000       0.00000000       0.00000000       0.00000000   -1860.93408203
Lu       0.00000000       0.00000000       0.82666667       0.00000000       0.00000000    1860.93408203
2
Properties=species:S:1:pos:R:3:forces:R:3 energy=121.3566972027224 pbc="F F F"
Lu       0.00000000       0.00000000       0.00000000       0.00000000       0.00000000    -596.54742432
Lu       0.00000000       0.00000000       0.88545455       0.00000000       0.00000000     596.54742432
2
Properties=species:S:1:pos:R:3:forces:R:3 energy=98.46995591299925 pbc="F F F"
Lu       0.00000000       0.00000000       0.00000000       0.00000000       0.00000000    -310.19064331
Lu       0.00000000       0.00000000       0.94424242       0.00000000       0.00000000     310.19064331
2
Properties=species:S:1:pos:R:3:forces:R:3 energy=80.35795687645381 pbc="F F F"
Lu       0.00000000       0.00000000       0.00000000       0.00000000       0.00000000    -303.83099365
Lu       0.00000000       0.00000000       1.00303030       0.00000000       0.00000000     303.83099365
2
Properties=species:S:1:pos:R:3:forces:R:3 energy=64.36790624682264 pbc="F F F"
Lu       0.00000000       0.00000000       0.00000000       0.00000000       0.00000000    -249.04336548
Lu       0.00000000       0.00000000       1.06181818       0.00000000       0.00000000     249.04336548
2
Properties=species:S:1:pos:R:3:forces:R:3 energy=49.981821598216364 pbc="F F F"
Lu       0.00000000       0.00000000       0.00000000       0.00000000       0.00000000    -220.37350464
Lu       0.00000000       0.00000000       1.12060606       0.00000000       0.00000000     220.37350464
2
Properties=species:S:1:pos:R:3:forces:R:3 energy=38.74689458218624 pbc="F F F"
Lu       0.00000000       0.00000000       0.00000000       0.00000000       0.00000000    -166.29452515
Lu       0.00000000       0.00000000       1.17939394       0.00000000       0.00000000     166.29452515
2
Properties=species:S:1:pos:R:3:forces:R:3 energy=30.601506469828376 pbc="F F F"
Lu       0.00000000       0.00000000       0.00000000       0.00000000       0.00000000    -100.08776855
Lu       0.00000000       0.00000000       1.23818182       0.00000000       0.00000000     100.08776855
2
Properties=species:S:1:pos:R:3:forces:R:3 energy=25.777537525158774 pbc="F F F"
Lu       0.00000000       0.00000000       0.00000000       0.00000000       0.00000000     -66.45929718
Lu       0.00000000       0.00000000       1.29696970       0.00000000       0.00000000      66.45929718
2
Properties=species:S:1:pos:R:3:forces:R:3 energy=22.635129578355563 pbc="F F F"
Lu       0.00000000       0.00000000       0.00000000       0.00000000       0.00000000     -41.85285187
Lu       0.00000000       0.00000000       1.35575758       0.00000000       0.00000000      41.85285187
2
Properties=species:S:1:pos:R:3:forces:R:3 energy=20.26025457573573 pbc="F F F"
Lu       0.00000000       0.00000000       0.00000000       0.00000000       0.00000000     -43.12569427
Lu       0.00000000       0.00000000       1.41454545       0.00000000       0.00000000      43.12569427
2
Properties=species:S:1:pos:R:3:forces:R:3 energy=17.634857669182665 pbc="F F F"
Lu       0.00000000       0.00000000       0.00000000       0.00000000       0.00000000     -41.11376953
Lu       0.00000000       0.00000000       1.47333333       0.00000000       0.00000000      41.11376953
2
Properties=species:S:1:pos:R:3:forces:R:3 energy=15.703345501144314 pbc="F F F"
Lu       0.00000000       0.00000000       0.00000000       0.00000000       0.00000000     -27.59318733
Lu       0.00000000       0.00000000       1.53212121       0.00000000       0.00000000      27.59318733
2
Properties=species:S:1:pos:R:3:forces:R:3 energy=14.11587235011696 pbc="F F F"
Lu       0.00000000       0.00000000       0.00000000       0.00000000       0.00000000     -27.24995232
Lu       0.00000000       0.00000000       1.59090909       0.00000000       0.00000000      27.24995232
2
Properties=species:S:1:pos:R:3:forces:R:3 energy=12.539115855802944 pbc="F F F"
Lu       0.00000000       0.00000000       0.00000000       0.00000000       0.00000000     -25.76088905
Lu       0.00000000       0.00000000       1.64969697       0.00000000       0.00000000      25.76088905
2
Properties=species:S:1:pos:R:3:forces:R:3 energy=10.98900639672413 pbc="F F F"
Lu       0.00000000       0.00000000       0.00000000       0.00000000       0.00000000     -27.51125526
Lu       0.00000000       0.00000000       1.70848485       0.00000000       0.00000000      27.51125526
2
Properties=species:S:1:pos:R:3:forces:R:3 energy=9.409157259667522 pbc="F F F"
Lu       0.00000000       0.00000000       0.00000000       0.00000000       0.00000000     -25.53351021
Lu       0.00000000       0.00000000       1.76727273       0.00000000       0.00000000      25.53351021
2
Properties=species:S:1:pos:R:3:forces:R:3 energy=7.953774020324516 pbc="F F F"
Lu       0.00000000       0.00000000       0.00000000       0.00000000       0.00000000     -24.28952599
Lu       0.00000000       0.00000000       1.82606061       0.00000000       0.00000000      24.28952599
2
Properties=species:S:1:pos:R:3:forces:R:3 energy=6.587059857329771 pbc="F F F"
Lu       0.00000000       0.00000000       0.00000000       0.00000000       0.00000000     -22.13326645
Lu       0.00000000       0.00000000       1.88484848       0.00000000       0.00000000      22.13326645
2
Properties=species:S:1:pos:R:3:forces:R:3 energy=5.344453612391867 pbc="F F F"
Lu       0.00000000       0.00000000       0.00000000       0.00000000       0.00000000     -20.09383011
Lu       0.00000000       0.00000000       1.94363636       0.00000000       0.00000000      20.09383011
2
Properties=species:S:1:pos:R:3:forces:R:3 energy=4.232465452868896 pbc="F F F"
Lu       0.00000000       0.00000000       0.00000000       0.00000000       0.00000000     -17.74011040
Lu       0.00000000       0.00000000       2.00242424       0.00000000       0.00000000      17.74011040
2
Properties=species:S:1:pos:R:3:forces:R:3 energy=3.247620576026176 pbc="F F F"
Lu       0.00000000       0.00000000       0.00000000       0.00000000       0.00000000     -15.83278561
Lu       0.00000000       0.00000000       2.06121212       0.00000000       0.00000000      15.83278561
2
Properties=species:S:1:pos:R:3:forces:R:3 energy=2.377760090495917 pbc="F F F"
Lu       0.00000000       0.00000000       0.00000000       0.00000000       0.00000000     -13.67603111
Lu       0.00000000       0.00000000       2.12000000       0.00000000       0.00000000      13.67603111
2
Properties=species:S:1:pos:R:3:forces:R:3 energy=1.6341111508467516 pbc="F F F"
Lu       0.00000000       0.00000000       0.00000000       0.00000000       0.00000000     -11.76214695
Lu       0.00000000       0.00000000       2.17878788       0.00000000       0.00000000      11.76214695
2
Properties=species:S:1:pos:R:3:forces:R:3 energy=0.9880860006255354 pbc="F F F"
Lu       0.00000000       0.00000000       0.00000000       0.00000000       0.00000000     -10.19099331
Lu       0.00000000       0.00000000       2.23757576       0.00000000       0.00000000      10.19099331
2
Properties=species:S:1:pos:R:3:forces:R:3 energy=0.4357980715404492 pbc="F F F"
Lu       0.00000000       0.00000000       0.00000000       0.00000000       0.00000000      -8.62102795
Lu       0.00000000       0.00000000       2.29636364       0.00000000       0.00000000       8.62102795
2
Properties=species:S:1:pos:R:3:forces:R:3 energy=-0.028398670457653444 pbc="F F F"
Lu       0.00000000       0.00000000       0.00000000       0.00000000       0.00000000      -7.21598053
Lu       0.00000000       0.00000000       2.35515152       0.00000000       0.00000000       7.21598053
2
Properties=species:S:1:pos:R:3:forces:R:3 energy=-0.42012660842797844 pbc="F F F"
Lu       0.00000000       0.00000000       0.00000000       0.00000000       0.00000000      -6.16724682
Lu       0.00000000       0.00000000       2.41393939       0.00000000       0.00000000       6.16724682
2
Properties=species:S:1:pos:R:3:forces:R:3 energy=-0.758083617394189 pbc="F F F"
Lu       0.00000000       0.00000000       0.00000000       0.00000000       0.00000000      -5.35752058
Lu       0.00000000       0.00000000       2.47272727       0.00000000       0.00000000       5.35752058
2
Properties=species:S:1:pos:R:3:forces:R:3 energy=-1.0514097786888374 pbc="F F F"
Lu       0.00000000       0.00000000       0.00000000       0.00000000       0.00000000      -4.62270689
Lu       0.00000000       0.00000000       2.53151515       0.00000000       0.00000000       4.62270689
2
Properties=species:S:1:pos:R:3:forces:R:3 energy=-1.3029833544185974 pbc="F F F"
Lu       0.00000000       0.00000000       0.00000000       0.00000000       0.00000000      -3.96193290
Lu       0.00000000       0.00000000       2.59030303       0.00000000       0.00000000       3.96193290
2
Properties=species:S:1:pos:R:3:forces:R:3 energy=-1.5205680964794066 pbc="F F F"
Lu       0.00000000       0.00000000       0.00000000       0.00000000       0.00000000      -3.46283555
Lu       0.00000000       0.00000000       2.64909091       0.00000000       0.00000000       3.46283555
2
Properties=species:S:1:pos:R:3:forces:R:3 energy=-1.711536718619255 pbc="F F F"
Lu       0.00000000       0.00000000       0.00000000       0.00000000       0.00000000      -3.03682756
Lu       0.00000000       0.00000000       2.70787879       0.00000000       0.00000000       3.03682756
2
Properties=species:S:1:pos:R:3:forces:R:3 energy=-1.8775026130259793 pbc="F F F"
Lu       0.00000000       0.00000000       0.00000000       0.00000000       0.00000000      -2.60855341
Lu       0.00000000       0.00000000       2.76666667       0.00000000       0.00000000       2.60855341
2
Properties=species:S:1:pos:R:3:forces:R:3 energy=-2.0185150636451343 pbc="F F F"
Lu       0.00000000       0.00000000       0.00000000       0.00000000       0.00000000      -2.19457269
Lu       0.00000000       0.00000000       2.82545455       0.00000000       0.00000000       2.19457269
2
Properties=species:S:1:pos:R:3:forces:R:3 energy=-2.136461842099333 pbc="F F F"
Lu       0.00000000       0.00000000       0.00000000       0.00000000       0.00000000      -1.82710302
Lu       0.00000000       0.00000000       2.88424242       0.00000000       0.00000000       1.82710302
2
Properties=species:S:1:pos:R:3:forces:R:3 energy=-2.234407598467143 pbc="F F F"
Lu       0.00000000       0.00000000       0.00000000       0.00000000       0.00000000      -1.51345944
Lu       0.00000000       0.00000000       2.94303030       0.00000000       0.00000000       1.51345944
2
Properties=species:S:1:pos:R:3:forces:R:3 energy=-2.3152384746675683 pbc="F F F"
Lu       0.00000000       0.00000000       0.00000000       0.00000000       0.00000000      -1.24222982
Lu       0.00000000       0.00000000       3.00181818       0.00000000       0.00000000       1.24222982
2
Properties=species:S:1:pos:R:3:forces:R:3 energy=-2.3810499152410043 pbc="F F F"
Lu       0.00000000       0.00000000       0.00000000       0.00000000       0.00000000      -1.00153768
Lu       0.00000000       0.00000000       3.06060606       0.00000000       0.00000000       1.00153768
2
Properties=species:S:1:pos:R:3:forces:R:3 energy=-2.4336293405949343 pbc="F F F"
Lu       0.00000000       0.00000000       0.00000000       0.00000000       0.00000000      -0.79327536
Lu       0.00000000       0.00000000       3.11939394       0.00000000       0.00000000       0.79327536
2
Properties=species:S:1:pos:R:3:forces:R:3 energy=-2.4750661310990627 pbc="F F F"
Lu       0.00000000       0.00000000       0.00000000       0.00000000       0.00000000      -0.62275690
Lu       0.00000000       0.00000000       3.17818182       0.00000000       0.00000000       0.62275690
2
Properties=species:S:1:pos:R:3:forces:R:3 energy=-2.5075233407999407 pbc="F F F"
Lu       0.00000000       0.00000000       0.00000000       0.00000000       0.00000000      -0.48631629
Lu       0.00000000       0.00000000       3.23696970       0.00000000       0.00000000       0.48631629
2
Properties=species:S:1:pos:R:3:forces:R:3 energy=-2.532701010191695 pbc="F F F"
Lu       0.00000000       0.00000000       0.00000000       0.00000000       0.00000000      -0.37312359
Lu       0.00000000       0.00000000       3.29575758       0.00000000       0.00000000       0.37312359
2
Properties=species:S:1:pos:R:3:forces:R:3 energy=-2.5516509600016457 pbc="F F F"
Lu       0.00000000       0.00000000       0.00000000       0.00000000       0.00000000      -0.27335766
Lu       0.00000000       0.00000000       3.35454545       0.00000000       0.00000000       0.27335766
2
Properties=species:S:1:pos:R:3:forces:R:3 energy=-2.565023133931248 pbc="F F F"
Lu       0.00000000       0.00000000       0.00000000       0.00000000       0.00000000      -0.18302912
Lu       0.00000000       0.00000000       3.41333333       0.00000000       0.00000000       0.18302912
2
Properties=species:S:1:pos:R:3:forces:R:3 energy=-2.573329408317984 pbc="F F F"
Lu       0.00000000       0.00000000       0.00000000       0.00000000       0.00000000      -0.10070628
Lu       0.00000000       0.00000000       3.47212121       0.00000000       0.00000000       0.10070628
2
Properties=species:S:1:pos:R:3:forces:R:3 energy=-2.5769698135072567 pbc="F F F"
Lu       0.00000000       0.00000000       0.00000000       0.00000000       0.00000000      -0.02382452
Lu       0.00000000       0.00000000       3.53090909       0.00000000       0.00000000       0.02382452
2
Properties=species:S:1:pos:R:3:forces:R:3 energy=-2.5761890069586255 pbc="F F F"
Lu       0.00000000       0.00000000       0.00000000       0.00000000       0.00000000       0.04989316
Lu       0.00000000       0.00000000       3.58969697       0.00000000       0.00000000      -0.04989316
2
Properties=species:S:1:pos:R:3:forces:R:3 energy=-2.5711677499524512 pbc="F F F"
Lu       0.00000000       0.00000000       0.00000000       0.00000000       0.00000000       0.12038524
Lu       0.00000000       0.00000000       3.64848485       0.00000000       0.00000000      -0.12038524
2
Properties=species:S:1:pos:R:3:forces:R:3 energy=-2.562134462142337 pbc="F F F"
Lu       0.00000000       0.00000000       0.00000000       0.00000000       0.00000000       0.18589263
Lu       0.00000000       0.00000000       3.70727273       0.00000000       0.00000000      -0.18589263
2
Properties=species:S:1:pos:R:3:forces:R:3 energy=-2.5494424691747586 pbc="F F F"
Lu       0.00000000       0.00000000       0.00000000       0.00000000       0.00000000       0.24469393
Lu       0.00000000       0.00000000       3.76606061       0.00000000       0.00000000      -0.24469393
2
Properties=species:S:1:pos:R:3:forces:R:3 energy=-2.533512934285543 pbc="F F F"
Lu       0.00000000       0.00000000       0.00000000       0.00000000       0.00000000       0.29596469
Lu       0.00000000       0.00000000       3.82484848       0.00000000       0.00000000      -0.29596469
2
Properties=species:S:1:pos:R:3:forces:R:3 energy=-2.5147928079309247 pbc="F F F"
Lu       0.00000000       0.00000000       0.00000000       0.00000000       0.00000000       0.33964041
Lu       0.00000000       0.00000000       3.88363636       0.00000000       0.00000000      -0.33964041
2
Properties=species:S:1:pos:R:3:forces:R:3 energy=-2.4937234579054155 pbc="F F F"
Lu       0.00000000       0.00000000       0.00000000       0.00000000       0.00000000       0.37603179
Lu       0.00000000       0.00000000       3.94242424       0.00000000       0.00000000      -0.37603179
2
Properties=species:S:1:pos:R:3:forces:R:3 energy=-2.4707139791322317 pbc="F F F"
Lu       0.00000000       0.00000000       0.00000000       0.00000000       0.00000000       0.40562567
Lu       0.00000000       0.00000000       4.00121212       0.00000000       0.00000000      -0.40562567
2
Properties=species:S:1:pos:R:3:forces:R:3 energy=-2.4461527011115347 pbc="F F F"
Lu       0.00000000       0.00000000       0.00000000       0.00000000       0.00000000       0.42907777
Lu       0.00000000       0.00000000       4.06000000       0.00000000       0.00000000      -0.42907777
2
Properties=species:S:1:pos:R:3:forces:R:3 energy=-2.4203709736389856 pbc="F F F"
Lu       0.00000000       0.00000000       0.00000000       0.00000000       0.00000000       0.44715607
Lu       0.00000000       0.00000000       4.11878788       0.00000000       0.00000000      -0.44715607
2
Properties=species:S:1:pos:R:3:forces:R:3 energy=-2.3936679750092584 pbc="F F F"
Lu       0.00000000       0.00000000       0.00000000       0.00000000       0.00000000       0.46053243
Lu       0.00000000       0.00000000       4.17757576       0.00000000       0.00000000      -0.46053243
2
Properties=species:S:1:pos:R:3:forces:R:3 energy=-2.3663070240316624 pbc="F F F"
Lu       0.00000000       0.00000000       0.00000000       0.00000000       0.00000000       0.46958038
Lu       0.00000000       0.00000000       4.23636364       0.00000000       0.00000000      -0.46958038
2
Properties=species:S:1:pos:R:3:forces:R:3 energy=-2.3385403122059243 pbc="F F F"
Lu       0.00000000       0.00000000       0.00000000       0.00000000       0.00000000       0.47434181
Lu       0.00000000       0.00000000       4.29515152       0.00000000       0.00000000      -0.47434181
2
Properties=species:S:1:pos:R:3:forces:R:3 energy=-2.3106224388963033 pbc="F F F"
Lu       0.00000000       0.00000000       0.00000000       0.00000000       0.00000000       0.47471395
Lu       0.00000000       0.00000000       4.35393939       0.00000000       0.00000000      -0.47471395
2
Properties=species:S:1:pos:R:3:forces:R:3 energy=-2.282814105651614 pbc="F F F"
Lu       0.00000000       0.00000000       0.00000000       0.00000000       0.00000000       0.47067115
Lu       0.00000000       0.00000000       4.41272727       0.00000000       0.00000000      -0.47067115
2
Properties=species:S:1:pos:R:3:forces:R:3 energy=-2.2553650767804188 pbc="F F F"
Lu       0.00000000       0.00000000       0.00000000       0.00000000       0.00000000       0.46243131
Lu       0.00000000       0.00000000       4.47151515       0.00000000       0.00000000      -0.46243131
2
Properties=species:S:1:pos:R:3:forces:R:3 energy=-2.22851515836792 pbc="F F F"
Lu       0.00000000       0.00000000       0.00000000       0.00000000       0.00000000       0.45047718
Lu       0.00000000       0.00000000       4.53030303       0.00000000       0.00000000      -0.45047718
2
Properties=species:S:1:pos:R:3:forces:R:3 energy=-2.202461767013558 pbc="F F F"
Lu       0.00000000       0.00000000       0.00000000       0.00000000       0.00000000       0.43546569
Lu       0.00000000       0.00000000       4.58909091       0.00000000       0.00000000      -0.43546569
2
Properties=species:S:1:pos:R:3:forces:R:3 energy=-2.1773608644983957 pbc="F F F"
Lu       0.00000000       0.00000000       0.00000000       0.00000000       0.00000000       0.41816399
Lu       0.00000000       0.00000000       4.64787879       0.00000000       0.00000000      -0.41816399
2
Properties=species:S:1:pos:R:3:forces:R:3 energy=-2.153323231786872 pbc="F F F"
Lu       0.00000000       0.00000000       0.00000000       0.00000000       0.00000000       0.39935634
Lu       0.00000000       0.00000000       4.70666667       0.00000000       0.00000000      -0.39935634
2
Properties=species:S:1:pos:R:3:forces:R:3 energy=-2.130418169682469 pbc="F F F"
Lu       0.00000000       0.00000000       0.00000000       0.00000000       0.00000000       0.37985280
Lu       0.00000000       0.00000000       4.76545455       0.00000000       0.00000000      -0.37985280
2
Properties=species:S:1:pos:R:3:forces:R:3 energy=-2.1086611390754686 pbc="F F F"
Lu       0.00000000       0.00000000       0.00000000       0.00000000       0.00000000       0.36044285
Lu       0.00000000       0.00000000       4.82424242       0.00000000       0.00000000      -0.36044285
2
Properties=species:S:1:pos:R:3:forces:R:3 energy=-2.088024219682207 pbc="F F F"
Lu       0.00000000       0.00000000       0.00000000       0.00000000       0.00000000       0.34184572
Lu       0.00000000       0.00000000       4.88303030       0.00000000       0.00000000      -0.34184572
2
Properties=species:S:1:pos:R:3:forces:R:3 energy=-2.068441699042445 pbc="F F F"
Lu       0.00000000       0.00000000       0.00000000       0.00000000       0.00000000       0.32459271
Lu       0.00000000       0.00000000       4.94181818       0.00000000       0.00000000      -0.32459271
2
Properties=species:S:1:pos:R:3:forces:R:3 energy=-2.049828211338312 pbc="F F F"
Lu       0.00000000       0.00000000       0.00000000       0.00000000       0.00000000       0.30891114
Lu       0.00000000       0.00000000       5.00060606       0.00000000       0.00000000      -0.30891114
2
Properties=species:S:1:pos:R:3:forces:R:3 energy=-2.0320920444852266 pbc="F F F"
Lu       0.00000000       0.00000000       0.00000000       0.00000000       0.00000000       0.29462793
Lu       0.00000000       0.00000000       5.05939394       0.00000000       0.00000000      -0.29462793
2
Properties=species:S:1:pos:R:3:forces:R:3 energy=-2.0151712023578794 pbc="F F F"
Lu       0.00000000       0.00000000       0.00000000       0.00000000       0.00000000       0.28113183
Lu       0.00000000       0.00000000       5.11818182       0.00000000       0.00000000      -0.28113183
2
Properties=species:S:1:pos:R:3:forces:R:3 energy=-1.999041987859079 pbc="F F F"
Lu       0.00000000       0.00000000       0.00000000       0.00000000       0.00000000       0.26748964
Lu       0.00000000       0.00000000       5.17696970       0.00000000       0.00000000      -0.26748964
2
Properties=species:S:1:pos:R:3:forces:R:3 energy=-1.9837455822555503 pbc="F F F"
Lu       0.00000000       0.00000000       0.00000000       0.00000000       0.00000000       0.25260460
Lu       0.00000000       0.00000000       5.23575758       0.00000000       0.00000000      -0.25260460
2
Properties=species:S:1:pos:R:3:forces:R:3 energy=-1.9693879881571341 pbc="F F F"
Lu       0.00000000       0.00000000       0.00000000       0.00000000       0.00000000       0.23547286
Lu       0.00000000       0.00000000       5.29454545       0.00000000       0.00000000      -0.23547286
2
Properties=species:S:1:pos:R:3:forces:R:3 energy=-1.956115161124651 pbc="F F F"
Lu       0.00000000       0.00000000       0.00000000       0.00000000       0.00000000       0.21543434
Lu       0.00000000       0.00000000       5.35333333       0.00000000       0.00000000      -0.21543434
2
Properties=species:S:1:pos:R:3:forces:R:3 energy=-1.9441157439799657 pbc="F F F"
Lu       0.00000000       0.00000000       0.00000000       0.00000000       0.00000000       0.19236138
Lu       0.00000000       0.00000000       5.41212121       0.00000000       0.00000000      -0.19236138
2
Properties=species:S:1:pos:R:3:forces:R:3 energy=-1.9335504758996396 pbc="F F F"
Lu       0.00000000       0.00000000       0.00000000       0.00000000       0.00000000       0.16673391
Lu       0.00000000       0.00000000       5.47090909       0.00000000       0.00000000      -0.16673391
2
Properties=species:S:1:pos:R:3:forces:R:3 energy=-1.9245425891475014 pbc="F F F"
Lu       0.00000000       0.00000000       0.00000000       0.00000000       0.00000000       0.13962023
Lu       0.00000000       0.00000000       5.52969697       0.00000000       0.00000000      -0.13962023
2
Properties=species:S:1:pos:R:3:forces:R:3 energy=-1.91713288817929 pbc="F F F"
Lu       0.00000000       0.00000000       0.00000000       0.00000000       0.00000000       0.11252049
Lu       0.00000000       0.00000000       5.58848485       0.00000000       0.00000000      -0.11252049
2
Properties=species:S:1:pos:R:3:forces:R:3 energy=-1.911276001469653 pbc="F F F"
Lu       0.00000000       0.00000000       0.00000000       0.00000000       0.00000000       0.08714141
Lu       0.00000000       0.00000000       5.64727273       0.00000000       0.00000000      -0.08714141
2
Properties=species:S:1:pos:R:3:forces:R:3 energy=-1.9068230696546338 pbc="F F F"
Lu       0.00000000       0.00000000       0.00000000       0.00000000       0.00000000       0.06508133
Lu       0.00000000       0.00000000       5.70606061       0.00000000       0.00000000      -0.06508133
2
Properties=species:S:1:pos:R:3:forces:R:3 energy=-1.9035341686403608 pbc="F F F"
Lu       0.00000000       0.00000000       0.00000000       0.00000000       0.00000000       0.04755254
Lu       0.00000000       0.00000000       5.76484848       0.00000000       0.00000000      -0.04755254
2
Properties=species:S:1:pos:R:3:forces:R:3 energy=-1.9011279861987 pbc="F F F"
Lu       0.00000000       0.00000000       0.00000000       0.00000000       0.00000000       0.03518856
Lu       0.00000000       0.00000000       5.82363636       0.00000000       0.00000000      -0.03518856
2
Properties=species:S:1:pos:R:3:forces:R:3 energy=-1.8993026285719967 pbc="F F F"
Lu       0.00000000       0.00000000       0.00000000       0.00000000       0.00000000       0.02779159
Lu       0.00000000       0.00000000       5.88242424       0.00000000       0.00000000      -0.02779159
2
Properties=species:S:1:pos:R:3:forces:R:3 energy=-1.8977834625800027 pbc="F F F"
Lu       0.00000000       0.00000000       0.00000000       0.00000000       0.00000000       0.02435633
Lu       0.00000000       0.00000000       5.94121212       0.00000000       0.00000000      -0.02435633
2
Properties=species:S:1:pos:R:3:forces:R:3 energy=-1.8963926958311101 pbc="F F F"
Lu       0.00000000       0.00000000       0.00000000       0.00000000       0.00000000       0.02315903
Lu       0.00000000       0.00000000       6.00000000       0.00000000       0.00000000      -0.02315903
