2
Properties=species:S:1:pos:R:3:forces:R:3 energy=13848750.966403492 pbc="F F F"
Mn       0.00000000       0.00000000       0.00000000       0.00000000       0.00000000 -135756608.00000000
Mn       0.00000000       0.00000000       0.18000000       0.00000000       0.00000000 135756608.00000000
2
Properties=species:S:1:pos:R:3:forces:R:3 energy=6989500.466403491 pbc="F F F"
Mn       0.00000000       0.00000000       0.00000000       0.00000000       0.00000000 -94510672.00000000
Mn       0.00000000       0.00000000       0.23878788       0.00000000       0.00000000 94510672.00000000
2
Properties=species:S:1:pos:R:3:forces:R:3 energy=2813311.9664034913 pbc="F F F"
Mn       0.00000000       0.00000000       0.00000000       0.00000000       0.00000000 -48997020.00000000
Mn       0.00000000       0.00000000       0.29757576       0.00000000       0.00000000 48997020.00000000
2
Properties=species:S:1:pos:R:3:forces:R:3 energy=920448.0289034944 pbc="F F F"
Mn       0.00000000       0.00000000       0.00000000       0.00000000       0.00000000 -18507782.00000000
Mn       0.00000000       0.00000000       0.35636364       0.00000000       0.00000000 18507782.00000000
2
Properties=species:S:1:pos:R:3:forces:R:3 energy=272602.9664034975 pbc="F F F"
Mn       0.00000000       0.00000000       0.00000000       0.00000000       0.00000000 -5831644.00000000
Mn       0.00000000       0.00000000       0.41515152       0.00000000       0.00000000 5831644.00000000
2
Properties=species:S:1:pos:R:3:forces:R:3 energy=81825.81796601016 pbc="F F F"
Mn       0.00000000       0.00000000       0.00000000       0.00000000       0.00000000 -1544406.12500000
Mn       0.00000000       0.00000000       0.47393939       0.00000000       0.00000000 1544406.12500000
2
Properties=species:S:1:pos:R:3:forces:R:3 energy=29749.69491915416 pbc="F F F"
Mn       0.00000000       0.00000000       0.00000000       0.00000000       0.00000000 -476707.78125000
Mn       0.00000000       0.00000000       0.53272727       0.00000000       0.00000000  476707.78125000
2
Properties=species:S:1:pos:R:3:forces:R:3 energy=12296.728122317176 pbc="F F F"
Mn       0.00000000       0.00000000       0.00000000       0.00000000       0.00000000 -181996.71875000
Mn       0.00000000       0.00000000       0.59151515       0.00000000       0.00000000  181996.71875000
2
Properties=species:S:1:pos:R:3:forces:R:3 energy=5147.942966121028 pbc="F F F"
Mn       0.00000000       0.00000000       0.00000000       0.00000000       0.00000000  -68714.60937500
Mn       0.00000000       0.00000000       0.65030303       0.00000000       0.00000000   68714.60937500
2
Properties=species:S:1:pos:R:3:forces:R:3 energy=2797.6080052690595 pbc="F F F"
Mn       0.00000000       0.00000000       0.00000000       0.00000000       0.00000000  -29558.06445312
Mn       0.00000000       0.00000000       0.70909091       0.00000000       0.00000000   29558.06445312
2
Properties=species:S:1:pos:R:3:forces:R:3 energy=1163.5379370459007 pbc="F F F"
Mn       0.00000000       0.00000000       0.00000000       0.00000000       0.00000000  -20514.56640625
Mn       0.00000000       0.00000000       0.76787879       0.00000000       0.00000000   20514.56640625
2
Properties=species:S:1:pos:R:3:forces:R:3 energy=318.4590493060204 pbc="F F F"
Mn       0.00000000       0.00000000       0.00000000       0.00000000       0.00000000   -8106.90722656
Mn       0.00000000       0.00000000       0.82666667       0.00000000       0.00000000    8106.90722656
2
Properties=species:S:1:pos:R:3:forces:R:3 energy=100.9663966948902 pbc="F F F"
Mn       0.00000000       0.00000000       0.00000000       0.00000000       0.00000000   -1932.56433105
Mn       0.00000000       0.00000000       0.88545455       0.00000000       0.00000000    1932.56433105
2
Properties=species:S:1:pos:R:3:forces:R:3 energy=24.118277361485827 pbc="F F F"
Mn       0.00000000       0.00000000       0.00000000       0.00000000       0.00000000    -816.84063721
Mn       0.00000000       0.00000000       0.94424242       0.00000000       0.00000000     816.84063721
2
Properties=species:S:1:pos:R:3:forces:R:3 energy=-3.357398630208821 pbc="F F F"
Mn       0.00000000       0.00000000       0.00000000       0.00000000       0.00000000    -194.34788513
Mn       0.00000000       0.00000000       1.00303030       0.00000000       0.00000000     194.34788513
2
Properties=species:S:1:pos:R:3:forces:R:3 energy=-6.467551087180626 pbc="F F F"
Mn       0.00000000       0.00000000       0.00000000       0.00000000       0.00000000      27.93553162
Mn       0.00000000       0.00000000       1.06181818       0.00000000       0.00000000     -27.93553162
2
Properties=species:S:1:pos:R:3:forces:R:3 energy=-0.12913209825878758 pbc="F F F"
Mn       0.00000000       0.00000000       0.00000000       0.00000000       0.00000000     151.60261536
Mn       0.00000000       0.00000000       1.12060606       0.00000000       0.00000000    -151.60261536
2
Properties=species:S:1:pos:R:3:forces:R:3 energy=4.565472157353421 pbc="F F F"
Mn       0.00000000       0.00000000       0.00000000       0.00000000       0.00000000      -0.48272458
Mn       0.00000000       0.00000000       1.17939394       0.00000000       0.00000000       0.48272458
2
Properties=species:S:1:pos:R:3:forces:R:3 energy=2.5040209548594623 pbc="F F F"
Mn       0.00000000       0.00000000       0.00000000       0.00000000       0.00000000     -59.43944168
Mn       0.00000000       0.00000000       1.23818182       0.00000000       0.00000000      59.43944168
2
Properties=species:S:1:pos:R:3:forces:R:3 energy=-1.159498683026652 pbc="F F F"
Mn       0.00000000       0.00000000       0.00000000       0.00000000       0.00000000     -65.87434387
Mn       0.00000000       0.00000000       1.29696970       0.00000000       0.00000000      65.87434387
2
Properties=species:S:1:pos:R:3:forces:R:3 energy=-4.745866458517475 pbc="F F F"
Mn       0.00000000       0.00000000       0.00000000       0.00000000       0.00000000     -53.41891479
Mn       0.00000000       0.00000000       1.35575758       0.00000000       0.00000000      53.41891479
2
Properties=species:S:1:pos:R:3:forces:R:3 energy=-7.375297676693821 pbc="F F F"
Mn       0.00000000       0.00000000       0.00000000       0.00000000       0.00000000     -35.57099533
Mn       0.00000000       0.00000000       1.41454545       0.00000000       0.00000000      35.57099533
2
Properties=species:S:1:pos:R:3:forces:R:3 energy=-8.895451312362287 pbc="F F F"
Mn       0.00000000       0.00000000       0.00000000       0.00000000       0.00000000     -17.09589195
Mn       0.00000000       0.00000000       1.47333333       0.00000000       0.00000000      17.09589195
2
Properties=species:S:1:pos:R:3:forces:R:3 energy=-9.54031598487273 pbc="F F F"
Mn       0.00000000       0.00000000       0.00000000       0.00000000       0.00000000      -6.00645304
Mn       0.00000000       0.00000000       1.53212121       0.00000000       0.00000000       6.00645304
2
Properties=species:S:1:pos:R:3:forces:R:3 energy=-9.720872752131603 pbc="F F F"
Mn       0.00000000       0.00000000       0.00000000       0.00000000       0.00000000      -1.03883266
Mn       0.00000000       0.00000000       1.59090909       0.00000000       0.00000000       1.03883266
2
Properties=species:S:1:pos:R:3:forces:R:3 energy=-9.741816619988374 pbc="F F F"
Mn       0.00000000       0.00000000       0.00000000       0.00000000       0.00000000       0.14891618
Mn       0.00000000       0.00000000       1.64969697       0.00000000       0.00000000      -0.14891618
2
Properties=species:S:1:pos:R:3:forces:R:3 energy=-9.738428232419942 pbc="F F F"
Mn       0.00000000       0.00000000       0.00000000       0.00000000       0.00000000      -0.29540095
Mn       0.00000000       0.00000000       1.70848485       0.00000000       0.00000000       0.29540095
2
Properties=species:S:1:pos:R:3:forces:R:3 energy=-9.783867019504864 pbc="F F F"
Mn       0.00000000       0.00000000       0.00000000       0.00000000       0.00000000      -1.23201728
Mn       0.00000000       0.00000000       1.76727273       0.00000000       0.00000000       1.23201728
2
Properties=species:S:1:pos:R:3:forces:R:3 energy=-9.895404764383644 pbc="F F F"
Mn       0.00000000       0.00000000       0.00000000       0.00000000       0.00000000      -2.59635353
Mn       0.00000000       0.00000000       1.82606061       0.00000000       0.00000000       2.59635353
2
Properties=species:S:1:pos:R:3:forces:R:3 energy=-10.06089800854792 pbc="F F F"
Mn       0.00000000       0.00000000       0.00000000       0.00000000       0.00000000      -2.94965982
Mn       0.00000000       0.00000000       1.88484848       0.00000000       0.00000000       2.94965982
2
Properties=species:S:1:pos:R:3:forces:R:3 energy=-10.238269015265836 pbc="F F F"
Mn       0.00000000       0.00000000       0.00000000       0.00000000       0.00000000      -2.99182081
Mn       0.00000000       0.00000000       1.94363636       0.00000000       0.00000000       2.99182081
2
Properties=species:S:1:pos:R:3:forces:R:3 energy=-10.410158072171505 pbc="F F F"
Mn       0.00000000       0.00000000       0.00000000       0.00000000       0.00000000      -2.87784100
Mn       0.00000000       0.00000000       2.00242424       0.00000000       0.00000000       2.87784100
2
Properties=species:S:1:pos:R:3:forces:R:3 energy=-10.57386780006548 pbc="F F F"
Mn       0.00000000       0.00000000       0.00000000       0.00000000       0.00000000      -2.63567019
Mn       0.00000000       0.00000000       2.06121212       0.00000000       0.00000000       2.63567019
2
Properties=species:S:1:pos:R:3:forces:R:3 energy=-10.718448047380866 pbc="F F F"
Mn       0.00000000       0.00000000       0.00000000       0.00000000       0.00000000      -2.29421949
Mn       0.00000000       0.00000000       2.12000000       0.00000000       0.00000000       2.29421949
2
Properties=species:S:1:pos:R:3:forces:R:3 energy=-10.846494013730704 pbc="F F F"
Mn       0.00000000       0.00000000       0.00000000       0.00000000       0.00000000      -2.10334873
Mn       0.00000000       0.00000000       2.17878788       0.00000000       0.00000000       2.10334873
2
Properties=species:S:1:pos:R:3:forces:R:3 energy=-10.966516657533091 pbc="F F F"
Mn       0.00000000       0.00000000       0.00000000       0.00000000       0.00000000      -1.95262396
Mn       0.00000000       0.00000000       2.23757576       0.00000000       0.00000000       1.95262396
2
Properties=species:S:1:pos:R:3:forces:R:3 energy=-11.074850819773376 pbc="F F F"
Mn       0.00000000       0.00000000       0.00000000       0.00000000       0.00000000      -1.73770094
Mn       0.00000000       0.00000000       2.29636364       0.00000000       0.00000000       1.73770094
2
Properties=species:S:1:pos:R:3:forces:R:3 energy=-11.17052083056445 pbc="F F F"
Mn       0.00000000       0.00000000       0.00000000       0.00000000       0.00000000      -1.50510526
Mn       0.00000000       0.00000000       2.35515152       0.00000000       0.00000000       1.50510526
2
Properties=species:S:1:pos:R:3:forces:R:3 energy=-11.250779601355964 pbc="F F F"
Mn       0.00000000       0.00000000       0.00000000       0.00000000       0.00000000      -1.22610283
Mn       0.00000000       0.00000000       2.41393939       0.00000000       0.00000000       1.22610283
2
Properties=species:S:1:pos:R:3:forces:R:3 energy=-11.31614339184682 pbc="F F F"
Mn       0.00000000       0.00000000       0.00000000       0.00000000       0.00000000      -1.01766121
Mn       0.00000000       0.00000000       2.47272727       0.00000000       0.00000000       1.01766121
2
Properties=species:S:1:pos:R:3:forces:R:3 energy=-11.371977856324518 pbc="F F F"
Mn       0.00000000       0.00000000       0.00000000       0.00000000       0.00000000      -0.88305390
Mn       0.00000000       0.00000000       2.53151515       0.00000000       0.00000000       0.88305390
2
Properties=species:S:1:pos:R:3:forces:R:3 energy=-11.419638642115267 pbc="F F F"
Mn       0.00000000       0.00000000       0.00000000       0.00000000       0.00000000      -0.73729593
Mn       0.00000000       0.00000000       2.59030303       0.00000000       0.00000000       0.73729593
2
Properties=species:S:1:pos:R:3:forces:R:3 energy=-11.458459020475214 pbc="F F F"
Mn       0.00000000       0.00000000       0.00000000       0.00000000       0.00000000      -0.57649708
Mn       0.00000000       0.00000000       2.64909091       0.00000000       0.00000000       0.57649708
2
Properties=species:S:1:pos:R:3:forces:R:3 energy=-11.485960131349103 pbc="F F F"
Mn       0.00000000       0.00000000       0.00000000       0.00000000       0.00000000      -0.34653813
Mn       0.00000000       0.00000000       2.70787879       0.00000000       0.00000000       0.34653813
2
Properties=species:S:1:pos:R:3:forces:R:3 energy=-11.498734834855425 pbc="F F F"
Mn       0.00000000       0.00000000       0.00000000       0.00000000       0.00000000      -0.09369166
Mn       0.00000000       0.00000000       2.76666667       0.00000000       0.00000000       0.09369166
2
Properties=species:S:1:pos:R:3:forces:R:3 energy=-11.498234136985316 pbc="F F F"
Mn       0.00000000       0.00000000       0.00000000       0.00000000       0.00000000       0.09861951
Mn       0.00000000       0.00000000       2.82545455       0.00000000       0.00000000      -0.09861951
2
Properties=species:S:1:pos:R:3:forces:R:3 energy=-11.488370777152964 pbc="F F F"
Mn       0.00000000       0.00000000       0.00000000       0.00000000       0.00000000       0.22841196
Mn       0.00000000       0.00000000       2.88424242       0.00000000       0.00000000      -0.22841196
2
Properties=species:S:1:pos:R:3:forces:R:3 energy=-11.472168368499906 pbc="F F F"
Mn       0.00000000       0.00000000       0.00000000       0.00000000       0.00000000       0.31765437
Mn       0.00000000       0.00000000       2.94303030       0.00000000       0.00000000      -0.31765437
2
Properties=species:S:1:pos:R:3:forces:R:3 energy=-11.45148596800812 pbc="F F F"
Mn       0.00000000       0.00000000       0.00000000       0.00000000       0.00000000       0.38297531
Mn       0.00000000       0.00000000       3.00181818       0.00000000       0.00000000      -0.38297531
2
Properties=species:S:1:pos:R:3:forces:R:3 energy=-11.42744236521053 pbc="F F F"
Mn       0.00000000       0.00000000       0.00000000       0.00000000       0.00000000       0.43261895
Mn       0.00000000       0.00000000       3.06060606       0.00000000       0.00000000      -0.43261895
2
Properties=species:S:1:pos:R:3:forces:R:3 energy=-11.400904084394877 pbc="F F F"
Mn       0.00000000       0.00000000       0.00000000       0.00000000       0.00000000       0.46791866
Mn       0.00000000       0.00000000       3.11939394       0.00000000       0.00000000      -0.46791866
2
Properties=species:S:1:pos:R:3:forces:R:3 energy=-11.372659481570327 pbc="F F F"
Mn       0.00000000       0.00000000       0.00000000       0.00000000       0.00000000       0.49145097
Mn       0.00000000       0.00000000       3.17818182       0.00000000       0.00000000      -0.49145097
2
Properties=species:S:1:pos:R:3:forces:R:3 energy=-11.34325146288058 pbc="F F F"
Mn       0.00000000       0.00000000       0.00000000       0.00000000       0.00000000       0.50816923
Mn       0.00000000       0.00000000       3.23696970       0.00000000       0.00000000      -0.50816923
2
Properties=species:S:1:pos:R:3:forces:R:3 energy=-11.313006467037864 pbc="F F F"
Mn       0.00000000       0.00000000       0.00000000       0.00000000       0.00000000       0.51984644
Mn       0.00000000       0.00000000       3.29575758       0.00000000       0.00000000      -0.51984644
2
Properties=species:S:1:pos:R:3:forces:R:3 energy=-11.282258955278591 pbc="F F F"
Mn       0.00000000       0.00000000       0.00000000       0.00000000       0.00000000       0.52494663
Mn       0.00000000       0.00000000       3.35454545       0.00000000       0.00000000      -0.52494663
2
Properties=species:S:1:pos:R:3:forces:R:3 energy=-11.25144022012434 pbc="F F F"
Mn       0.00000000       0.00000000       0.00000000       0.00000000       0.00000000       0.52228463
Mn       0.00000000       0.00000000       3.41333333       0.00000000       0.00000000      -0.52228463
2
Properties=species:S:1:pos:R:3:forces:R:3 energy=-11.220986468188098 pbc="F F F"
Mn       0.00000000       0.00000000       0.00000000       0.00000000       0.00000000       0.51278812
Mn       0.00000000       0.00000000       3.47212121       0.00000000       0.00000000      -0.51278812
2
Properties=species:S:1:pos:R:3:forces:R:3 energy=-11.191239872464179 pbc="F F F"
Mn       0.00000000       0.00000000       0.00000000       0.00000000       0.00000000       0.49862036
Mn       0.00000000       0.00000000       3.53090909       0.00000000       0.00000000      -0.49862036
2
Properties=species:S:1:pos:R:3:forces:R:3 energy=-11.162418251155081 pbc="F F F"
Mn       0.00000000       0.00000000       0.00000000       0.00000000       0.00000000       0.48147407
Mn       0.00000000       0.00000000       3.58969697       0.00000000       0.00000000      -0.48147407
2
Properties=species:S:1:pos:R:3:forces:R:3 energy=-11.134678041854588 pbc="F F F"
Mn       0.00000000       0.00000000       0.00000000       0.00000000       0.00000000       0.46185946
Mn       0.00000000       0.00000000       3.64848485       0.00000000       0.00000000      -0.46185946
2
Properties=species:S:1:pos:R:3:forces:R:3 energy=-11.10816506803409 pbc="F F F"
Mn       0.00000000       0.00000000       0.00000000       0.00000000       0.00000000       0.43967250
Mn       0.00000000       0.00000000       3.70727273       0.00000000       0.00000000      -0.43967250
2
Properties=species:S:1:pos:R:3:forces:R:3 energy=-11.083030859211917 pbc="F F F"
Mn       0.00000000       0.00000000       0.00000000       0.00000000       0.00000000       0.41506153
Mn       0.00000000       0.00000000       3.76606061       0.00000000       0.00000000      -0.41506153
2
Properties=species:S:1:pos:R:3:forces:R:3 energy=-11.059398242650209 pbc="F F F"
Mn       0.00000000       0.00000000       0.00000000       0.00000000       0.00000000       0.38878766
Mn       0.00000000       0.00000000       3.82484848       0.00000000       0.00000000      -0.38878766
2
Properties=species:S:1:pos:R:3:forces:R:3 energy=-11.03732818016576 pbc="F F F"
Mn       0.00000000       0.00000000       0.00000000       0.00000000       0.00000000       0.36199343
Mn       0.00000000       0.00000000       3.88363636       0.00000000       0.00000000      -0.36199343
2
Properties=species:S:1:pos:R:3:forces:R:3 energy=-11.0168245238303 pbc="F F F"
Mn       0.00000000       0.00000000       0.00000000       0.00000000       0.00000000       0.33575541
Mn       0.00000000       0.00000000       3.94242424       0.00000000       0.00000000      -0.33575541
2
Properties=species:S:1:pos:R:3:forces:R:3 energy=-10.997827289565134 pbc="F F F"
Mn       0.00000000       0.00000000       0.00000000       0.00000000       0.00000000       0.31077132
Mn       0.00000000       0.00000000       4.00121212       0.00000000       0.00000000      -0.31077132
2
Properties=species:S:1:pos:R:3:forces:R:3 energy=-10.980254656824924 pbc="F F F"
Mn       0.00000000       0.00000000       0.00000000       0.00000000       0.00000000       0.28733954
Mn       0.00000000       0.00000000       4.06000000       0.00000000       0.00000000      -0.28733954
2
Properties=species:S:1:pos:R:3:forces:R:3 energy=-10.964011513652673 pbc="F F F"
Mn       0.00000000       0.00000000       0.00000000       0.00000000       0.00000000       0.26551884
Mn       0.00000000       0.00000000       4.11878788       0.00000000       0.00000000      -0.26551884
2
Properties=species:S:1:pos:R:3:forces:R:3 energy=-10.949004569748974 pbc="F F F"
Mn       0.00000000       0.00000000       0.00000000       0.00000000       0.00000000       0.24526772
Mn       0.00000000       0.00000000       4.17757576       0.00000000       0.00000000      -0.24526772
2
Properties=species:S:1:pos:R:3:forces:R:3 energy=-10.935144162450321 pbc="F F F"
Mn       0.00000000       0.00000000       0.00000000       0.00000000       0.00000000       0.22650464
Mn       0.00000000       0.00000000       4.23636364       0.00000000       0.00000000      -0.22650464
2
Properties=species:S:1:pos:R:3:forces:R:3 energy=-10.922346031029228 pbc="F F F"
Mn       0.00000000       0.00000000       0.00000000       0.00000000       0.00000000       0.20912653
Mn       0.00000000       0.00000000       4.29515152       0.00000000       0.00000000      -0.20912653
2
Properties=species:S:1:pos:R:3:forces:R:3 energy=-10.910532219683375 pbc="F F F"
Mn       0.00000000       0.00000000       0.00000000       0.00000000       0.00000000       0.19303164
Mn       0.00000000       0.00000000       4.35393939       0.00000000       0.00000000      -0.19303164
2
Properties=species:S:1:pos:R:3:forces:R:3 energy=-10.899626838350187 pbc="F F F"
Mn       0.00000000       0.00000000       0.00000000       0.00000000       0.00000000       0.17814326
Mn       0.00000000       0.00000000       4.41272727       0.00000000       0.00000000      -0.17814326
2
Properties=species:S:1:pos:R:3:forces:R:3 energy=-10.889562700413178 pbc="F F F"
Mn       0.00000000       0.00000000       0.00000000       0.00000000       0.00000000       0.16442828
Mn       0.00000000       0.00000000       4.47151515       0.00000000       0.00000000      -0.16442828
2
Properties=species:S:1:pos:R:3:forces:R:3 energy=-10.880271652910254 pbc="F F F"
Mn       0.00000000       0.00000000       0.00000000       0.00000000       0.00000000       0.15188105
Mn       0.00000000       0.00000000       4.53030303       0.00000000       0.00000000      -0.15188105
2
Properties=species:S:1:pos:R:3:forces:R:3 energy=-10.871683299741543 pbc="F F F"
Mn       0.00000000       0.00000000       0.00000000       0.00000000       0.00000000       0.14050002
Mn       0.00000000       0.00000000       4.58909091       0.00000000       0.00000000      -0.14050002
2
Properties=species:S:1:pos:R:3:forces:R:3 energy=-10.863729668670667 pbc="F F F"
Mn       0.00000000       0.00000000       0.00000000       0.00000000       0.00000000       0.13026902
Mn       0.00000000       0.00000000       4.64787879       0.00000000       0.00000000      -0.13026902
2
Properties=species:S:1:pos:R:3:forces:R:3 energy=-10.8563441689514 pbc="F F F"
Mn       0.00000000       0.00000000       0.00000000       0.00000000       0.00000000       0.12114471
Mn       0.00000000       0.00000000       4.70666667       0.00000000       0.00000000      -0.12114471
2
Properties=species:S:1:pos:R:3:forces:R:3 energy=-10.849465146263528 pbc="F F F"
Mn       0.00000000       0.00000000       0.00000000       0.00000000       0.00000000       0.11306683
Mn       0.00000000       0.00000000       4.76545455       0.00000000       0.00000000      -0.11306683
2
Properties=species:S:1:pos:R:3:forces:R:3 energy=-10.843030217687735 pbc="F F F"
Mn       0.00000000       0.00000000       0.00000000       0.00000000       0.00000000       0.10596758
Mn       0.00000000       0.00000000       4.82424242       0.00000000       0.00000000      -0.10596758
2
Properties=species:S:1:pos:R:3:forces:R:3 energy=-10.836988511080625 pbc="F F F"
Mn       0.00000000       0.00000000       0.00000000       0.00000000       0.00000000       0.09977994
Mn       0.00000000       0.00000000       4.88303030       0.00000000       0.00000000      -0.09977994
2
Properties=species:S:1:pos:R:3:forces:R:3 energy=-10.831282500913185 pbc="F F F"
Mn       0.00000000       0.00000000       0.00000000       0.00000000       0.00000000       0.09443633
Mn       0.00000000       0.00000000       4.94181818       0.00000000       0.00000000      -0.09443633
2
Properties=species:S:1:pos:R:3:forces:R:3 energy=-10.825869004944867 pbc="F F F"
Mn       0.00000000       0.00000000       0.00000000       0.00000000       0.00000000       0.08984609
Mn       0.00000000       0.00000000       5.00060606       0.00000000       0.00000000      -0.08984609
2
Properties=species:S:1:pos:R:3:forces:R:3 energy=-10.820705930985644 pbc="F F F"
Mn       0.00000000       0.00000000       0.00000000       0.00000000       0.00000000       0.08587257
Mn       0.00000000       0.00000000       5.05939394       0.00000000       0.00000000      -0.08587257
2
Properties=species:S:1:pos:R:3:forces:R:3 energy=-10.815765495287904 pbc="F F F"
Mn       0.00000000       0.00000000       0.00000000       0.00000000       0.00000000       0.08231001
Mn       0.00000000       0.00000000       5.11818182       0.00000000       0.00000000      -0.08231001
2
Properties=species:S:1:pos:R:3:forces:R:3 energy=-10.811025791533067 pbc="F F F"
Mn       0.00000000       0.00000000       0.00000000       0.00000000       0.00000000       0.07888591
Mn       0.00000000       0.00000000       5.17696970       0.00000000       0.00000000      -0.07888591
2
Properties=species:S:1:pos:R:3:forces:R:3 energy=-10.806493748707272 pbc="F F F"
Mn       0.00000000       0.00000000       0.00000000       0.00000000       0.00000000       0.07528136
Mn       0.00000000       0.00000000       5.23575758       0.00000000       0.00000000      -0.07528136
2
Properties=species:S:1:pos:R:3:forces:R:3 energy=-10.802185119779837 pbc="F F F"
Mn       0.00000000       0.00000000       0.00000000       0.00000000       0.00000000       0.07118856
Mn       0.00000000       0.00000000       5.29454545       0.00000000       0.00000000      -0.07118856
2
Properties=species:S:1:pos:R:3:forces:R:3 energy=-10.798137975695685 pbc="F F F"
Mn       0.00000000       0.00000000       0.00000000       0.00000000       0.00000000       0.06637022
Mn       0.00000000       0.00000000       5.35333333       0.00000000       0.00000000      -0.06637022
2
Properties=species:S:1:pos:R:3:forces:R:3 energy=-10.794398408180157 pbc="F F F"
Mn       0.00000000       0.00000000       0.00000000       0.00000000       0.00000000       0.06072266
Mn       0.00000000       0.00000000       5.41212121       0.00000000       0.00000000      -0.06072266
2
Properties=species:S:1:pos:R:3:forces:R:3 energy=-10.791013019137813 pbc="F F F"
Mn       0.00000000       0.00000000       0.00000000       0.00000000       0.00000000       0.05431259
Mn       0.00000000       0.00000000       5.47090909       0.00000000       0.00000000      -0.05431259
2
Properties=species:S:1:pos:R:3:forces:R:3 energy=-10.788022309872561 pbc="F F F"
Mn       0.00000000       0.00000000       0.00000000       0.00000000       0.00000000       0.04737481
Mn       0.00000000       0.00000000       5.52969697       0.00000000       0.00000000      -0.04737481
2
Properties=species:S:1:pos:R:3:forces:R:3 energy=-10.785445457144649 pbc="F F F"
Mn       0.00000000       0.00000000       0.00000000       0.00000000       0.00000000       0.04028433
Mn       0.00000000       0.00000000       5.58848485       0.00000000       0.00000000      -0.04028433
2
Properties=species:S:1:pos:R:3:forces:R:3 energy=-10.783280462058304 pbc="F F F"
Mn       0.00000000       0.00000000       0.00000000       0.00000000       0.00000000       0.03348552
Mn       0.00000000       0.00000000       5.64727273       0.00000000       0.00000000      -0.03348552
2
Properties=species:S:1:pos:R:3:forces:R:3 energy=-10.781494573720785 pbc="F F F"
Mn       0.00000000       0.00000000       0.00000000       0.00000000       0.00000000       0.02741414
Mn       0.00000000       0.00000000       5.70606061       0.00000000       0.00000000      -0.02741414
2
Properties=species:S:1:pos:R:3:forces:R:3 energy=-10.78003581569756 pbc="F F F"
Mn       0.00000000       0.00000000       0.00000000       0.00000000       0.00000000       0.02240691
Mn       0.00000000       0.00000000       5.76484848       0.00000000       0.00000000      -0.02240691
2
Properties=species:S:1:pos:R:3:forces:R:3 energy=-10.778835015322098 pbc="F F F"
Mn       0.00000000       0.00000000       0.00000000       0.00000000       0.00000000       0.01865565
Mn       0.00000000       0.00000000       5.82363636       0.00000000       0.00000000      -0.01865565
2
Properties=species:S:1:pos:R:3:forces:R:3 energy=-10.777818104843389 pbc="F F F"
Mn       0.00000000       0.00000000       0.00000000       0.00000000       0.00000000       0.01613788
Mn       0.00000000       0.00000000       5.88242424       0.00000000       0.00000000      -0.01613788
2
Properties=species:S:1:pos:R:3:forces:R:3 energy=-10.77691865540843 pbc="F F F"
Mn       0.00000000       0.00000000       0.00000000       0.00000000       0.00000000       0.01462235
Mn       0.00000000       0.00000000       5.94121212       0.00000000       0.00000000      -0.01462235
2
Properties=species:S:1:pos:R:3:forces:R:3 energy=-10.776087405885818 pbc="F F F"
Mn       0.00000000       0.00000000       0.00000000       0.00000000       0.00000000       0.01369574
Mn       0.00000000       0.00000000       6.00000000       0.00000000       0.00000000      -0.01369574
