2
Properties=species:S:1:pos:R:3:forces:R:3 energy=-2947642.5509570865 pbc="F F F"
Sn       0.00000000       0.00000000       0.00000000       0.00000000       0.00000000 28012138.00000000
Sn       0.00000000       0.00000000       0.18000000       0.00000000       0.00000000 -28012138.00000000
2
Properties=species:S:1:pos:R:3:forces:R:3 energy=-1529315.9259570865 pbc="F F F"
Sn       0.00000000       0.00000000       0.00000000       0.00000000       0.00000000 19632968.00000000
Sn       0.00000000       0.00000000       0.23878788       0.00000000       0.00000000 -19632968.00000000
2
Properties=species:S:1:pos:R:3:forces:R:3 energy=-650844.3009570802 pbc="F F F"
Sn       0.00000000       0.00000000       0.00000000       0.00000000       0.00000000 10544403.00000000
Sn       0.00000000       0.00000000       0.29757576       0.00000000       0.00000000 -10544403.00000000
2
Properties=species:S:1:pos:R:3:forces:R:3 energy=-238177.7384570802 pbc="F F F"
Sn       0.00000000       0.00000000       0.00000000       0.00000000       0.00000000 4184157.25000000
Sn       0.00000000       0.00000000       0.35636364       0.00000000       0.00000000 -4184157.25000000
2
Properties=species:S:1:pos:R:3:forces:R:3 energy=-80786.43376957388 pbc="F F F"
Sn       0.00000000       0.00000000       0.00000000       0.00000000       0.00000000 1530307.12500000
Sn       0.00000000       0.00000000       0.41515152       0.00000000       0.00000000 -1530307.12500000
2
Properties=species:S:1:pos:R:3:forces:R:3 energy=-26206.46501956438 pbc="F F F"
Sn       0.00000000       0.00000000       0.00000000       0.00000000       0.00000000  491062.34375000
Sn       0.00000000       0.00000000       0.47393939       0.00000000       0.00000000 -491062.34375000
2
Properties=species:S:1:pos:R:3:forces:R:3 energy=-8742.792167979707 pbc="F F F"
Sn       0.00000000       0.00000000       0.00000000       0.00000000       0.00000000  167749.07812500
Sn       0.00000000       0.00000000       0.53272727       0.00000000       0.00000000 -167749.07812500
2
Properties=species:S:1:pos:R:3:forces:R:3 energy=-2620.8431933354855 pbc="F F F"
Sn       0.00000000       0.00000000       0.00000000       0.00000000       0.00000000   54932.93750000
Sn       0.00000000       0.00000000       0.59151515       0.00000000       0.00000000  -54932.93750000
2
Properties=species:S:1:pos:R:3:forces:R:3 energy=-652.6400682784647 pbc="F F F"
Sn       0.00000000       0.00000000       0.00000000       0.00000000       0.00000000   18363.50781250
Sn       0.00000000       0.00000000       0.65030303       0.00000000       0.00000000  -18363.50781250
2
Properties=species:S:1:pos:R:3:forces:R:3 energy=488.99774919938244 pbc="F F F"
Sn       0.00000000       0.00000000       0.00000000       0.00000000       0.00000000    1838.77441406
Sn       0.00000000       0.00000000       0.70909091       0.00000000       0.00000000   -1838.77441406
2
Properties=species:S:1:pos:R:3:forces:R:3 energy=300.3094558785676 pbc="F F F"
Sn       0.00000000       0.00000000       0.00000000       0.00000000       0.00000000   -4401.02050781
Sn       0.00000000       0.00000000       0.76787879       0.00000000       0.00000000    4401.02050781
2
Properties=species:S:1:pos:R:3:forces:R:3 energy=85.34777853320647 pbc="F F F"
Sn       0.00000000       0.00000000       0.00000000       0.00000000       0.00000000   -3242.61230469
Sn       0.00000000       0.00000000       0.82666667       0.00000000       0.00000000    3242.61230469
2
Properties=species:S:1:pos:R:3:forces:R:3 energy=-2.5525788985899815 pbc="F F F"
Sn       0.00000000       0.00000000       0.00000000       0.00000000       0.00000000    -294.43676758
Sn       0.00000000       0.00000000       0.88545455       0.00000000       0.00000000     294.43676758
2
Properties=species:S:1:pos:R:3:forces:R:3 energy=0.26523777387152636 pbc="F F F"
Sn       0.00000000       0.00000000       0.00000000       0.00000000       0.00000000     353.53036499
Sn       0.00000000       0.00000000       0.94424242       0.00000000       0.00000000    -353.53036499
2
Properties=species:S:1:pos:R:3:forces:R:3 energy=19.550706439245335 pbc="F F F"
Sn       0.00000000       0.00000000       0.00000000       0.00000000       0.00000000     215.03813171
Sn       0.00000000       0.00000000       1.00303030       0.00000000       0.00000000    -215.03813171
2
Properties=species:S:1:pos:R:3:forces:R:3 energy=25.364754062431683 pbc="F F F"
Sn       0.00000000       0.00000000       0.00000000       0.00000000       0.00000000      46.29152679
Sn       0.00000000       0.00000000       1.06181818       0.00000000       0.00000000     -46.29152679
2
Properties=species:S:1:pos:R:3:forces:R:3 energy=26.161939069781106 pbc="F F F"
Sn       0.00000000       0.00000000       0.00000000       0.00000000       0.00000000     -47.70917892
Sn       0.00000000       0.00000000       1.12060606       0.00000000       0.00000000      47.70917892
2
Properties=species:S:1:pos:R:3:forces:R:3 energy=25.341677491330863 pbc="F F F"
Sn       0.00000000       0.00000000       0.00000000       0.00000000       0.00000000      14.90305042
Sn       0.00000000       0.00000000       1.17939394       0.00000000       0.00000000     -14.90305042
2
Properties=species:S:1:pos:R:3:forces:R:3 energy=26.523686044227965 pbc="F F F"
Sn       0.00000000       0.00000000       0.00000000       0.00000000       0.00000000      45.99515533
Sn       0.00000000       0.00000000       1.23818182       0.00000000       0.00000000     -45.99515533
2
Properties=species:S:1:pos:R:3:forces:R:3 energy=26.299750254415287 pbc="F F F"
Sn       0.00000000       0.00000000       0.00000000       0.00000000       0.00000000     -42.40023041
Sn       0.00000000       0.00000000       1.29696970       0.00000000       0.00000000      42.40023041
2
Properties=species:S:1:pos:R:3:forces:R:3 energy=24.015760268429148 pbc="F F F"
Sn       0.00000000       0.00000000       0.00000000       0.00000000       0.00000000     -38.89438248
Sn       0.00000000       0.00000000       1.35575758       0.00000000       0.00000000      38.89438248
2
Properties=species:S:1:pos:R:3:forces:R:3 energy=21.177041520861785 pbc="F F F"
Sn       0.00000000       0.00000000       0.00000000       0.00000000       0.00000000     -50.63469696
Sn       0.00000000       0.00000000       1.41454545       0.00000000       0.00000000      50.63469696
2
Properties=species:S:1:pos:R:3:forces:R:3 energy=18.55927470259302 pbc="F F F"
Sn       0.00000000       0.00000000       0.00000000       0.00000000       0.00000000     -41.42510223
Sn       0.00000000       0.00000000       1.47333333       0.00000000       0.00000000      41.42510223
2
Properties=species:S:1:pos:R:3:forces:R:3 energy=16.252706166239843 pbc="F F F"
Sn       0.00000000       0.00000000       0.00000000       0.00000000       0.00000000     -38.14272690
Sn       0.00000000       0.00000000       1.53212121       0.00000000       0.00000000      38.14272690
2
Properties=species:S:1:pos:R:3:forces:R:3 energy=14.015150509220215 pbc="F F F"
Sn       0.00000000       0.00000000       0.00000000       0.00000000       0.00000000     -37.29470825
Sn       0.00000000       0.00000000       1.59090909       0.00000000       0.00000000      37.29470825
2
Properties=species:S:1:pos:R:3:forces:R:3 energy=11.906378527884668 pbc="F F F"
Sn       0.00000000       0.00000000       0.00000000       0.00000000       0.00000000     -34.23681259
Sn       0.00000000       0.00000000       1.64969697       0.00000000       0.00000000      34.23681259
2
Properties=species:S:1:pos:R:3:forces:R:3 energy=9.938809238446321 pbc="F F F"
Sn       0.00000000       0.00000000       0.00000000       0.00000000       0.00000000     -32.90380478
Sn       0.00000000       0.00000000       1.70848485       0.00000000       0.00000000      32.90380478
2
Properties=species:S:1:pos:R:3:forces:R:3 energy=8.046009903436227 pbc="F F F"
Sn       0.00000000       0.00000000       0.00000000       0.00000000       0.00000000     -31.70311356
Sn       0.00000000       0.00000000       1.76727273       0.00000000       0.00000000      31.70311356
2
Properties=species:S:1:pos:R:3:forces:R:3 energy=6.2027413783513925 pbc="F F F"
Sn       0.00000000       0.00000000       0.00000000       0.00000000       0.00000000     -30.69816399
Sn       0.00000000       0.00000000       1.82606061       0.00000000       0.00000000      30.69816399
2
Properties=species:S:1:pos:R:3:forces:R:3 energy=4.469584233575106 pbc="F F F"
Sn       0.00000000       0.00000000       0.00000000       0.00000000       0.00000000     -28.21607018
Sn       0.00000000       0.00000000       1.88484848       0.00000000       0.00000000      28.21607018
2
Properties=species:S:1:pos:R:3:forces:R:3 energy=2.8863295429430456 pbc="F F F"
Sn       0.00000000       0.00000000       0.00000000       0.00000000       0.00000000     -25.54994774
Sn       0.00000000       0.00000000       1.94363636       0.00000000       0.00000000      25.54994774
2
Properties=species:S:1:pos:R:3:forces:R:3 energy=1.474392456040059 pbc="F F F"
Sn       0.00000000       0.00000000       0.00000000       0.00000000       0.00000000     -22.43917084
Sn       0.00000000       0.00000000       2.00242424       0.00000000       0.00000000      22.43917084
2
Properties=species:S:1:pos:R:3:forces:R:3 energy=0.26236746506827746 pbc="F F F"
Sn       0.00000000       0.00000000       0.00000000       0.00000000       0.00000000     -18.75968361
Sn       0.00000000       0.00000000       2.06121212       0.00000000       0.00000000      18.75968361
2
Properties=species:S:1:pos:R:3:forces:R:3 energy=-0.7482552838385287 pbc="F F F"
Sn       0.00000000       0.00000000       0.00000000       0.00000000       0.00000000     -15.76686192
Sn       0.00000000       0.00000000       2.12000000       0.00000000       0.00000000      15.76686192
2
Properties=species:S:1:pos:R:3:forces:R:3 energy=-1.600238014833895 pbc="F F F"
Sn       0.00000000       0.00000000       0.00000000       0.00000000       0.00000000     -13.27607250
Sn       0.00000000       0.00000000       2.17878788       0.00000000       0.00000000      13.27607250
2
Properties=species:S:1:pos:R:3:forces:R:3 energy=-2.3122935939696507 pbc="F F F"
Sn       0.00000000       0.00000000       0.00000000       0.00000000       0.00000000     -10.94789696
Sn       0.00000000       0.00000000       2.23757576       0.00000000       0.00000000      10.94789696
2
Properties=species:S:1:pos:R:3:forces:R:3 energy=-2.8900557208852713 pbc="F F F"
Sn       0.00000000       0.00000000       0.00000000       0.00000000       0.00000000      -8.74489975
Sn       0.00000000       0.00000000       2.29636364       0.00000000       0.00000000       8.74489975
2
Properties=species:S:1:pos:R:3:forces:R:3 energy=-3.3449087133342967 pbc="F F F"
Sn       0.00000000       0.00000000       0.00000000       0.00000000       0.00000000      -6.77746964
Sn       0.00000000       0.00000000       2.35515152       0.00000000       0.00000000       6.77746964
2
Properties=species:S:1:pos:R:3:forces:R:3 energy=-3.6937532209166273 pbc="F F F"
Sn       0.00000000       0.00000000       0.00000000       0.00000000       0.00000000      -5.14256191
Sn       0.00000000       0.00000000       2.41393939       0.00000000       0.00000000       5.14256191
2
Properties=species:S:1:pos:R:3:forces:R:3 energy=-3.9543543863286974 pbc="F F F"
Sn       0.00000000       0.00000000       0.00000000       0.00000000       0.00000000      -3.76122546
Sn       0.00000000       0.00000000       2.47272727       0.00000000       0.00000000       3.76122546
2
Properties=species:S:1:pos:R:3:forces:R:3 energy=-4.140671857459318 pbc="F F F"
Sn       0.00000000       0.00000000       0.00000000       0.00000000       0.00000000      -2.61954927
Sn       0.00000000       0.00000000       2.53151515       0.00000000       0.00000000       2.61954927
2
Properties=species:S:1:pos:R:3:forces:R:3 energy=-4.267579417043442 pbc="F F F"
Sn       0.00000000       0.00000000       0.00000000       0.00000000       0.00000000      -1.74112189
Sn       0.00000000       0.00000000       2.59030303       0.00000000       0.00000000       1.74112189
2
Properties=species:S:1:pos:R:3:forces:R:3 energy=-4.349535063989084 pbc="F F F"
Sn       0.00000000       0.00000000       0.00000000       0.00000000       0.00000000      -1.07277679
Sn       0.00000000       0.00000000       2.64909091       0.00000000       0.00000000       1.07277679
2
Properties=species:S:1:pos:R:3:forces:R:3 energy=-4.395764732332179 pbc="F F F"
Sn       0.00000000       0.00000000       0.00000000       0.00000000       0.00000000      -0.51136220
Sn       0.00000000       0.00000000       2.70787879       0.00000000       0.00000000       0.51136220
2
Properties=species:S:1:pos:R:3:forces:R:3 energy=-4.410761663286282 pbc="F F F"
Sn       0.00000000       0.00000000       0.00000000       0.00000000       0.00000000      -0.00875309
Sn       0.00000000       0.00000000       2.76666667       0.00000000       0.00000000       0.00875309
2
Properties=species:S:1:pos:R:3:forces:R:3 energy=-4.3982673776283985 pbc="F F F"
Sn       0.00000000       0.00000000       0.00000000       0.00000000       0.00000000       0.41854167
Sn       0.00000000       0.00000000       2.82545455       0.00000000       0.00000000      -0.41854167
2
Properties=species:S:1:pos:R:3:forces:R:3 energy=-4.363529488475775 pbc="F F F"
Sn       0.00000000       0.00000000       0.00000000       0.00000000       0.00000000       0.74593461
Sn       0.00000000       0.00000000       2.88424242       0.00000000       0.00000000      -0.74593461
2
Properties=species:S:1:pos:R:3:forces:R:3 energy=-4.3124902795060684 pbc="F F F"
Sn       0.00000000       0.00000000       0.00000000       0.00000000       0.00000000       0.97582203
Sn       0.00000000       0.00000000       2.94303030       0.00000000       0.00000000      -0.97582203
2
Properties=species:S:1:pos:R:3:forces:R:3 energy=-4.250212416424455 pbc="F F F"
Sn       0.00000000       0.00000000       0.00000000       0.00000000       0.00000000       1.13339138
Sn       0.00000000       0.00000000       3.00181818       0.00000000       0.00000000      -1.13339138
2
Properties=species:S:1:pos:R:3:forces:R:3 energy=-4.180117778003391 pbc="F F F"
Sn       0.00000000       0.00000000       0.00000000       0.00000000       0.00000000       1.24513006
Sn       0.00000000       0.00000000       3.06060606       0.00000000       0.00000000      -1.24513006
2
Properties=species:S:1:pos:R:3:forces:R:3 energy=-4.104489309721337 pbc="F F F"
Sn       0.00000000       0.00000000       0.00000000       0.00000000       0.00000000       1.32229114
Sn       0.00000000       0.00000000       3.11939394       0.00000000       0.00000000      -1.32229114
2
Properties=species:S:1:pos:R:3:forces:R:3 energy=-4.025269730195012 pbc="F F F"
Sn       0.00000000       0.00000000       0.00000000       0.00000000       0.00000000       1.36773038
Sn       0.00000000       0.00000000       3.17818182       0.00000000       0.00000000      -1.36773038
2
Properties=species:S:1:pos:R:3:forces:R:3 energy=-3.9442253023432894 pbc="F F F"
Sn       0.00000000       0.00000000       0.00000000       0.00000000       0.00000000       1.38515997
Sn       0.00000000       0.00000000       3.23696970       0.00000000       0.00000000      -1.38515997
2
Properties=species:S:1:pos:R:3:forces:R:3 energy=-3.8628773798273883 pbc="F F F"
Sn       0.00000000       0.00000000       0.00000000       0.00000000       0.00000000       1.37873971
Sn       0.00000000       0.00000000       3.29575758       0.00000000       0.00000000      -1.37873971
2
Properties=species:S:1:pos:R:3:forces:R:3 energy=-3.782492355896574 pbc="F F F"
Sn       0.00000000       0.00000000       0.00000000       0.00000000       0.00000000       1.35330141
Sn       0.00000000       0.00000000       3.35454545       0.00000000       0.00000000      -1.35330141
2
Properties=species:S:1:pos:R:3:forces:R:3 energy=-3.704027940266672 pbc="F F F"
Sn       0.00000000       0.00000000       0.00000000       0.00000000       0.00000000       1.31424594
Sn       0.00000000       0.00000000       3.41333333       0.00000000       0.00000000      -1.31424594
2
Properties=species:S:1:pos:R:3:forces:R:3 energy=-3.628143423034157 pbc="F F F"
Sn       0.00000000       0.00000000       0.00000000       0.00000000       0.00000000       1.26625824
Sn       0.00000000       0.00000000       3.47212121       0.00000000       0.00000000      -1.26625824
2
Properties=species:S:1:pos:R:3:forces:R:3 energy=-3.5552515865512584 pbc="F F F"
Sn       0.00000000       0.00000000       0.00000000       0.00000000       0.00000000       1.21291959
Sn       0.00000000       0.00000000       3.53090909       0.00000000       0.00000000      -1.21291959
2
Properties=species:S:1:pos:R:3:forces:R:3 energy=-3.4855921190543597 pbc="F F F"
Sn       0.00000000       0.00000000       0.00000000       0.00000000       0.00000000       1.15649951
Sn       0.00000000       0.00000000       3.58969697       0.00000000       0.00000000      -1.15649951
2
Properties=species:S:1:pos:R:3:forces:R:3 energy=-3.419314385261962 pbc="F F F"
Sn       0.00000000       0.00000000       0.00000000       0.00000000       0.00000000       1.09801280
Sn       0.00000000       0.00000000       3.64848485       0.00000000       0.00000000      -1.09801280
2
Properties=species:S:1:pos:R:3:forces:R:3 energy=-3.3565217434586483 pbc="F F F"
Sn       0.00000000       0.00000000       0.00000000       0.00000000       0.00000000       1.03807402
Sn       0.00000000       0.00000000       3.70727273       0.00000000       0.00000000      -1.03807402
2
Properties=species:S:1:pos:R:3:forces:R:3 energy=-3.297271501719636 pbc="F F F"
Sn       0.00000000       0.00000000       0.00000000       0.00000000       0.00000000       0.97766024
Sn       0.00000000       0.00000000       3.76606061       0.00000000       0.00000000      -0.97766024
2
Properties=species:S:1:pos:R:3:forces:R:3 energy=-3.2415552171956628 pbc="F F F"
Sn       0.00000000       0.00000000       0.00000000       0.00000000       0.00000000       0.91808069
Sn       0.00000000       0.00000000       3.82484848       0.00000000       0.00000000      -0.91808069
2
Properties=species:S:1:pos:R:3:forces:R:3 energy=-3.1892899430061816 pbc="F F F"
Sn       0.00000000       0.00000000       0.00000000       0.00000000       0.00000000       0.86038905
Sn       0.00000000       0.00000000       3.88363636       0.00000000       0.00000000      -0.86038905
2
Properties=species:S:1:pos:R:3:forces:R:3 energy=-3.140349806718202 pbc="F F F"
Sn       0.00000000       0.00000000       0.00000000       0.00000000       0.00000000       0.80497003
Sn       0.00000000       0.00000000       3.94242424       0.00000000       0.00000000      -0.80497003
2
Properties=species:S:1:pos:R:3:forces:R:3 energy=-3.094605812426097 pbc="F F F"
Sn       0.00000000       0.00000000       0.00000000       0.00000000       0.00000000       0.75161135
Sn       0.00000000       0.00000000       4.00121212       0.00000000       0.00000000      -0.75161135
2
Properties=species:S:1:pos:R:3:forces:R:3 energy=-3.0519462890727413 pbc="F F F"
Sn       0.00000000       0.00000000       0.00000000       0.00000000       0.00000000       0.69997013
Sn       0.00000000       0.00000000       4.06000000       0.00000000       0.00000000      -0.69997013
2
Properties=species:S:1:pos:R:3:forces:R:3 energy=-3.012273447891424 pbc="F F F"
Sn       0.00000000       0.00000000       0.00000000       0.00000000       0.00000000       0.65003586
Sn       0.00000000       0.00000000       4.11878788       0.00000000       0.00000000      -0.65003586
2
Properties=species:S:1:pos:R:3:forces:R:3 energy=-2.9754758065502127 pbc="F F F"
Sn       0.00000000       0.00000000       0.00000000       0.00000000       0.00000000       0.60226238
Sn       0.00000000       0.00000000       4.17757576       0.00000000       0.00000000      -0.60226238
2
Properties=species:S:1:pos:R:3:forces:R:3 energy=-2.941402728217226 pbc="F F F"
Sn       0.00000000       0.00000000       0.00000000       0.00000000       0.00000000       0.55742550
Sn       0.00000000       0.00000000       4.23636364       0.00000000       0.00000000      -0.55742550
2
Properties=species:S:1:pos:R:3:forces:R:3 energy=-2.909861725264436 pbc="F F F"
Sn       0.00000000       0.00000000       0.00000000       0.00000000       0.00000000       0.51634771
Sn       0.00000000       0.00000000       4.29515152       0.00000000       0.00000000      -0.51634771
2
Properties=species:S:1:pos:R:3:forces:R:3 energy=-2.8806061913822614 pbc="F F F"
Sn       0.00000000       0.00000000       0.00000000       0.00000000       0.00000000       0.47965434
Sn       0.00000000       0.00000000       4.35393939       0.00000000       0.00000000      -0.47965434
2
Properties=species:S:1:pos:R:3:forces:R:3 energy=-2.853374069738895 pbc="F F F"
Sn       0.00000000       0.00000000       0.00000000       0.00000000       0.00000000       0.44760689
Sn       0.00000000       0.00000000       4.41272727       0.00000000       0.00000000      -0.44760689
2
Properties=species:S:1:pos:R:3:forces:R:3 energy=-2.8278920463122397 pbc="F F F"
Sn       0.00000000       0.00000000       0.00000000       0.00000000       0.00000000       0.42002702
Sn       0.00000000       0.00000000       4.47151515       0.00000000       0.00000000      -0.42002702
2
Properties=species:S:1:pos:R:3:forces:R:3 energy=-2.803913848918026 pbc="F F F"
Sn       0.00000000       0.00000000       0.00000000       0.00000000       0.00000000       0.39631134
Sn       0.00000000       0.00000000       4.53030303       0.00000000       0.00000000      -0.39631134
2
Properties=species:S:1:pos:R:3:forces:R:3 energy=-2.7812366989236916 pbc="F F F"
Sn       0.00000000       0.00000000       0.00000000       0.00000000       0.00000000       0.37556303
Sn       0.00000000       0.00000000       4.58909091       0.00000000       0.00000000      -0.37556303
2
Properties=species:S:1:pos:R:3:forces:R:3 energy=-2.759717549054334 pbc="F F F"
Sn       0.00000000       0.00000000       0.00000000       0.00000000       0.00000000       0.35680759
Sn       0.00000000       0.00000000       4.64787879       0.00000000       0.00000000      -0.35680759
2
Properties=species:S:1:pos:R:3:forces:R:3 energy=-2.7392620496138083 pbc="F F F"
Sn       0.00000000       0.00000000       0.00000000       0.00000000       0.00000000       0.33924305
Sn       0.00000000       0.00000000       4.70666667       0.00000000       0.00000000      -0.33924305
2
Properties=species:S:1:pos:R:3:forces:R:3 energy=-2.719815819696062 pbc="F F F"
Sn       0.00000000       0.00000000       0.00000000       0.00000000       0.00000000       0.32244357
Sn       0.00000000       0.00000000       4.76545455       0.00000000       0.00000000      -0.32244357
2
Properties=species:S:1:pos:R:3:forces:R:3 energy=-2.7013339422782954 pbc="F F F"
Sn       0.00000000       0.00000000       0.00000000       0.00000000       0.00000000       0.30640483
Sn       0.00000000       0.00000000       4.82424242       0.00000000       0.00000000      -0.30640483
2
Properties=species:S:1:pos:R:3:forces:R:3 energy=-2.68376888173308 pbc="F F F"
Sn       0.00000000       0.00000000       0.00000000       0.00000000       0.00000000       0.29146081
Sn       0.00000000       0.00000000       4.88303030       0.00000000       0.00000000      -0.29146081
2
Properties=species:S:1:pos:R:3:forces:R:3 energy=-2.6670375567218643 pbc="F F F"
Sn       0.00000000       0.00000000       0.00000000       0.00000000       0.00000000       0.27805480
Sn       0.00000000       0.00000000       4.94181818       0.00000000       0.00000000      -0.27805480
2
Properties=species:S:1:pos:R:3:forces:R:3 energy=-2.651038894470806 pbc="F F F"
Sn       0.00000000       0.00000000       0.00000000       0.00000000       0.00000000       0.26644272
Sn       0.00000000       0.00000000       5.00060606       0.00000000       0.00000000      -0.26644272
2
Properties=species:S:1:pos:R:3:forces:R:3 energy=-2.6356762532045876 pbc="F F F"
Sn       0.00000000       0.00000000       0.00000000       0.00000000       0.00000000       0.25648257
Sn       0.00000000       0.00000000       5.05939394       0.00000000       0.00000000      -0.25648257
2
Properties=species:S:1:pos:R:3:forces:R:3 energy=-2.620864478085211 pbc="F F F"
Sn       0.00000000       0.00000000       0.00000000       0.00000000       0.00000000       0.24751687
Sn       0.00000000       0.00000000       5.11818182       0.00000000       0.00000000      -0.24751687
2
Properties=species:S:1:pos:R:3:forces:R:3 energy=-2.606577572256531 pbc="F F F"
Sn       0.00000000       0.00000000       0.00000000       0.00000000       0.00000000       0.23842308
Sn       0.00000000       0.00000000       5.17696970       0.00000000       0.00000000      -0.23842308
2
Properties=species:S:1:pos:R:3:forces:R:3 energy=-2.592862045116863 pbc="F F F"
Sn       0.00000000       0.00000000       0.00000000       0.00000000       0.00000000       0.22786988
Sn       0.00000000       0.00000000       5.23575758       0.00000000       0.00000000      -0.22786988
2
Properties=species:S:1:pos:R:3:forces:R:3 energy=-2.579840273937755 pbc="F F F"
Sn       0.00000000       0.00000000       0.00000000       0.00000000       0.00000000       0.21457835
Sn       0.00000000       0.00000000       5.29454545       0.00000000       0.00000000      -0.21457835
2
Properties=species:S:1:pos:R:3:forces:R:3 energy=-2.567702389712745 pbc="F F F"
Sn       0.00000000       0.00000000       0.00000000       0.00000000       0.00000000       0.19766507
Sn       0.00000000       0.00000000       5.35333333       0.00000000       0.00000000      -0.19766507
2
Properties=species:S:1:pos:R:3:forces:R:3 energy=-2.556675263735143 pbc="F F F"
Sn       0.00000000       0.00000000       0.00000000       0.00000000       0.00000000       0.17688140
Sn       0.00000000       0.00000000       5.41212121       0.00000000       0.00000000      -0.17688140
2
Properties=species:S:1:pos:R:3:forces:R:3 energy=-2.5469710947161435 pbc="F F F"
Sn       0.00000000       0.00000000       0.00000000       0.00000000       0.00000000       0.15273264
Sn       0.00000000       0.00000000       5.47090909       0.00000000       0.00000000      -0.15273264
2
Properties=species:S:1:pos:R:3:forces:R:3 energy=-2.5387597363905394 pbc="F F F"
Sn       0.00000000       0.00000000       0.00000000       0.00000000       0.00000000       0.12639391
Sn       0.00000000       0.00000000       5.52969697       0.00000000       0.00000000      -0.12639391
2
Properties=species:S:1:pos:R:3:forces:R:3 energy=-2.5321205876488984 pbc="F F F"
Sn       0.00000000       0.00000000       0.00000000       0.00000000       0.00000000       0.09957958
Sn       0.00000000       0.00000000       5.58848485       0.00000000       0.00000000      -0.09957958
2
Properties=species:S:1:pos:R:3:forces:R:3 energy=-2.5270235792398537 pbc="F F F"
Sn       0.00000000       0.00000000       0.00000000       0.00000000       0.00000000       0.07418935
Sn       0.00000000       0.00000000       5.64727273       0.00000000       0.00000000      -0.07418935
2
Properties=species:S:1:pos:R:3:forces:R:3 energy=-2.5233334494654196 pbc="F F F"
Sn       0.00000000       0.00000000       0.00000000       0.00000000       0.00000000       0.05202601
Sn       0.00000000       0.00000000       5.70606061       0.00000000       0.00000000      -0.05202601
2
Properties=species:S:1:pos:R:3:forces:R:3 energy=-2.5208159969170225 pbc="F F F"
Sn       0.00000000       0.00000000       0.00000000       0.00000000       0.00000000       0.03441679
Sn       0.00000000       0.00000000       5.76484848       0.00000000       0.00000000      -0.03441679
2
Properties=species:S:1:pos:R:3:forces:R:3 energy=-2.5191834623689076 pbc="F F F"
Sn       0.00000000       0.00000000       0.00000000       0.00000000       0.00000000       0.02205515
Sn       0.00000000       0.00000000       5.82363636       0.00000000       0.00000000      -0.02205515
2
Properties=species:S:1:pos:R:3:forces:R:3 energy=-2.5181240530841693 pbc="F F F"
Sn       0.00000000       0.00000000       0.00000000       0.00000000       0.00000000       0.01475613
Sn       0.00000000       0.00000000       5.88242424       0.00000000       0.00000000      -0.01475613
2
Properties=species:S:1:pos:R:3:forces:R:3 energy=-2.517369243378324 pbc="F F F"
Sn       0.00000000       0.00000000       0.00000000       0.00000000       0.00000000       0.01149435
Sn       0.00000000       0.00000000       5.94121212       0.00000000       0.00000000      -0.01149435
2
Properties=species:S:1:pos:R:3:forces:R:3 energy=-2.5167271896503394 pbc="F F F"
Sn       0.00000000       0.00000000       0.00000000       0.00000000       0.00000000       0.01052490
Sn       0.00000000       0.00000000       6.00000000       0.00000000       0.00000000      -0.01052490
