2
Properties=species:S:1:pos:R:3:forces:R:3 energy=256078703.92251268 pbc="F F F"
Tc       0.00000000       0.00000000       0.00000000       0.00000000       0.00000000 -2253887488.00000000
Tc       0.00000000       0.00000000       0.18000000       0.00000000       0.00000000 2253887488.00000000
2
Properties=species:S:1:pos:R:3:forces:R:3 energy=139650031.92251268 pbc="F F F"
Tc       0.00000000       0.00000000       0.00000000       0.00000000       0.00000000 -1653292928.00000000
Tc       0.00000000       0.00000000       0.23878788       0.00000000       0.00000000 1653292928.00000000
2
Properties=species:S:1:pos:R:3:forces:R:3 energy=63567483.92251267 pbc="F F F"
Tc       0.00000000       0.00000000       0.00000000       0.00000000       0.00000000 -949957312.00000000
Tc       0.00000000       0.00000000       0.29757576       0.00000000       0.00000000 949957312.00000000
2
Properties=species:S:1:pos:R:3:forces:R:3 energy=24142383.92251268 pbc="F F F"
Tc       0.00000000       0.00000000       0.00000000       0.00000000       0.00000000 -432115872.00000000
Tc       0.00000000       0.00000000       0.35636364       0.00000000       0.00000000 432115872.00000000
2
Properties=species:S:1:pos:R:3:forces:R:3 energy=7746039.922512688 pbc="F F F"
Tc       0.00000000       0.00000000       0.00000000       0.00000000       0.00000000 -162774224.00000000
Tc       0.00000000       0.00000000       0.41515152       0.00000000       0.00000000 162774224.00000000
2
Properties=species:S:1:pos:R:3:forces:R:3 energy=2059921.9225127134 pbc="F F F"
Tc       0.00000000       0.00000000       0.00000000       0.00000000       0.00000000 -47664516.00000000
Tc       0.00000000       0.00000000       0.47393939       0.00000000       0.00000000 47664516.00000000
2
Properties=species:S:1:pos:R:3:forces:R:3 energy=486866.9537627514 pbc="F F F"
Tc       0.00000000       0.00000000       0.00000000       0.00000000       0.00000000 -12838534.00000000
Tc       0.00000000       0.00000000       0.53272727       0.00000000       0.00000000 12838534.00000000
2
Properties=species:S:1:pos:R:3:forces:R:3 energy=96291.02407532744 pbc="F F F"
Tc       0.00000000       0.00000000       0.00000000       0.00000000       0.00000000 -2636090.25000000
Tc       0.00000000       0.00000000       0.59151515       0.00000000       0.00000000 2636090.25000000
2
Properties=species:S:1:pos:R:3:forces:R:3 energy=18264.98696606015 pbc="F F F"
Tc       0.00000000       0.00000000       0.00000000       0.00000000       0.00000000 -540588.75000000
Tc       0.00000000       0.00000000       0.65030303       0.00000000       0.00000000  540588.75000000
2
Properties=species:S:1:pos:R:3:forces:R:3 energy=3826.7967806970078 pbc="F F F"
Tc       0.00000000       0.00000000       0.00000000       0.00000000       0.00000000 -101899.11718750
Tc       0.00000000       0.00000000       0.70909091       0.00000000       0.00000000  101899.11718750
2
Properties=species:S:1:pos:R:3:forces:R:3 energy=857.714932824909 pbc="F F F"
Tc       0.00000000       0.00000000       0.00000000       0.00000000       0.00000000  -19529.13085938
Tc       0.00000000       0.00000000       0.76787879       0.00000000       0.00000000   19529.13085938
2
Properties=species:S:1:pos:R:3:forces:R:3 energy=272.0658853724922 pbc="F F F"
Tc       0.00000000       0.00000000       0.00000000       0.00000000       0.00000000   -4524.44482422
Tc       0.00000000       0.00000000       0.82666667       0.00000000       0.00000000    4524.44482422
2
Properties=species:S:1:pos:R:3:forces:R:3 energy=109.39892428544958 pbc="F F F"
Tc       0.00000000       0.00000000       0.00000000       0.00000000       0.00000000   -1392.93811035
Tc       0.00000000       0.00000000       0.88545455       0.00000000       0.00000000    1392.93811035
2
Properties=species:S:1:pos:R:3:forces:R:3 energy=52.13044670285737 pbc="F F F"
Tc       0.00000000       0.00000000       0.00000000       0.00000000       0.00000000    -704.71093750
Tc       0.00000000       0.00000000       0.94424242       0.00000000       0.00000000     704.71093750
2
Properties=species:S:1:pos:R:3:forces:R:3 energy=23.520248849657033 pbc="F F F"
Tc       0.00000000       0.00000000       0.00000000       0.00000000       0.00000000    -317.16415405
Tc       0.00000000       0.00000000       1.00303030       0.00000000       0.00000000     317.16415405
2
Properties=species:S:1:pos:R:3:forces:R:3 energy=11.218845398201804 pbc="F F F"
Tc       0.00000000       0.00000000       0.00000000       0.00000000       0.00000000    -124.42929077
Tc       0.00000000       0.00000000       1.06181818       0.00000000       0.00000000     124.42929077
2
Properties=species:S:1:pos:R:3:forces:R:3 energy=6.587503558712666 pbc="F F F"
Tc       0.00000000       0.00000000       0.00000000       0.00000000       0.00000000     -46.94266129
Tc       0.00000000       0.00000000       1.12060606       0.00000000       0.00000000      46.94266129
2
Properties=species:S:1:pos:R:3:forces:R:3 energy=4.005116350126436 pbc="F F F"
Tc       0.00000000       0.00000000       0.00000000       0.00000000       0.00000000     -46.51665878
Tc       0.00000000       0.00000000       1.17939394       0.00000000       0.00000000      46.51665878
2
Properties=species:S:1:pos:R:3:forces:R:3 energy=1.3754944129259197 pbc="F F F"
Tc       0.00000000       0.00000000       0.00000000       0.00000000       0.00000000     -41.98892212
Tc       0.00000000       0.00000000       1.23818182       0.00000000       0.00000000      41.98892212
2
Properties=species:S:1:pos:R:3:forces:R:3 energy=-0.8149004170796126 pbc="F F F"
Tc       0.00000000       0.00000000       0.00000000       0.00000000       0.00000000     -34.16091537
Tc       0.00000000       0.00000000       1.29696970       0.00000000       0.00000000      34.16091537
2
Properties=species:S:1:pos:R:3:forces:R:3 energy=-2.647632859415754 pbc="F F F"
Tc       0.00000000       0.00000000       0.00000000       0.00000000       0.00000000     -28.07847977
Tc       0.00000000       0.00000000       1.35575758       0.00000000       0.00000000      28.07847977
2
Properties=species:S:1:pos:R:3:forces:R:3 energy=-4.2569637856077085 pbc="F F F"
Tc       0.00000000       0.00000000       0.00000000       0.00000000       0.00000000     -26.61648750
Tc       0.00000000       0.00000000       1.41454545       0.00000000       0.00000000      26.61648750
2
Properties=species:S:1:pos:R:3:forces:R:3 energy=-5.672258481780487 pbc="F F F"
Tc       0.00000000       0.00000000       0.00000000       0.00000000       0.00000000     -21.27452850
Tc       0.00000000       0.00000000       1.47333333       0.00000000       0.00000000      21.27452850
2
Properties=species:S:1:pos:R:3:forces:R:3 energy=-6.779341781981755 pbc="F F F"
Tc       0.00000000       0.00000000       0.00000000       0.00000000       0.00000000     -16.62748528
Tc       0.00000000       0.00000000       1.53212121       0.00000000       0.00000000      16.62748528
2
Properties=species:S:1:pos:R:3:forces:R:3 energy=-7.635622605243171 pbc="F F F"
Tc       0.00000000       0.00000000       0.00000000       0.00000000       0.00000000     -12.78320503
Tc       0.00000000       0.00000000       1.59090909       0.00000000       0.00000000      12.78320503
2
Properties=species:S:1:pos:R:3:forces:R:3 energy=-8.340855839589551 pbc="F F F"
Tc       0.00000000       0.00000000       0.00000000       0.00000000       0.00000000     -11.39561939
Tc       0.00000000       0.00000000       1.64969697       0.00000000       0.00000000      11.39561939
2
Properties=species:S:1:pos:R:3:forces:R:3 energy=-8.993611884202162 pbc="F F F"
Tc       0.00000000       0.00000000       0.00000000       0.00000000       0.00000000     -10.79819489
Tc       0.00000000       0.00000000       1.70848485       0.00000000       0.00000000      10.79819489
2
Properties=species:S:1:pos:R:3:forces:R:3 energy=-9.594013287894498 pbc="F F F"
Tc       0.00000000       0.00000000       0.00000000       0.00000000       0.00000000      -9.63325214
Tc       0.00000000       0.00000000       1.76727273       0.00000000       0.00000000       9.63325214
2
Properties=species:S:1:pos:R:3:forces:R:3 energy=-10.147591935237374 pbc="F F F"
Tc       0.00000000       0.00000000       0.00000000       0.00000000       0.00000000      -9.14566517
Tc       0.00000000       0.00000000       1.82606061       0.00000000       0.00000000       9.14566517
2
Properties=species:S:1:pos:R:3:forces:R:3 energy=-10.628333149767425 pbc="F F F"
Tc       0.00000000       0.00000000       0.00000000       0.00000000       0.00000000      -7.16505575
Tc       0.00000000       0.00000000       1.88484848       0.00000000       0.00000000       7.16505575
2
Properties=species:S:1:pos:R:3:forces:R:3 energy=-10.991045103296663 pbc="F F F"
Tc       0.00000000       0.00000000       0.00000000       0.00000000       0.00000000      -5.10481596
Tc       0.00000000       0.00000000       1.94363636       0.00000000       0.00000000       5.10481596
2
Properties=species:S:1:pos:R:3:forces:R:3 energy=-11.228752118031323 pbc="F F F"
Tc       0.00000000       0.00000000       0.00000000       0.00000000       0.00000000      -3.05331874
Tc       0.00000000       0.00000000       2.00242424       0.00000000       0.00000000       3.05331874
2
Properties=species:S:1:pos:R:3:forces:R:3 energy=-11.355636636199092 pbc="F F F"
Tc       0.00000000       0.00000000       0.00000000       0.00000000       0.00000000      -1.26533961
Tc       0.00000000       0.00000000       2.06121212       0.00000000       0.00000000       1.26533961
2
Properties=species:S:1:pos:R:3:forces:R:3 energy=-11.381522434278963 pbc="F F F"
Tc       0.00000000       0.00000000       0.00000000       0.00000000       0.00000000       0.34576389
Tc       0.00000000       0.00000000       2.12000000       0.00000000       0.00000000      -0.34576389
2
Properties=species:S:1:pos:R:3:forces:R:3 energy=-11.321706944854922 pbc="F F F"
Tc       0.00000000       0.00000000       0.00000000       0.00000000       0.00000000       1.58681786
Tc       0.00000000       0.00000000       2.17878788       0.00000000       0.00000000      -1.58681786
2
Properties=species:S:1:pos:R:3:forces:R:3 energy=-11.202652328450164 pbc="F F F"
Tc       0.00000000       0.00000000       0.00000000       0.00000000       0.00000000       2.44449687
Tc       0.00000000       0.00000000       2.23757576       0.00000000       0.00000000      -2.44449687
2
Properties=species:S:1:pos:R:3:forces:R:3 energy=-11.04007229322545 pbc="F F F"
Tc       0.00000000       0.00000000       0.00000000       0.00000000       0.00000000       3.01224041
Tc       0.00000000       0.00000000       2.29636364       0.00000000       0.00000000      -3.01224041
2
Properties=species:S:1:pos:R:3:forces:R:3 energy=-10.855340035610897 pbc="F F F"
Tc       0.00000000       0.00000000       0.00000000       0.00000000       0.00000000       3.23231697
Tc       0.00000000       0.00000000       2.35515152       0.00000000       0.00000000      -3.23231697
2
Properties=species:S:1:pos:R:3:forces:R:3 energy=-10.663747266405943 pbc="F F F"
Tc       0.00000000       0.00000000       0.00000000       0.00000000       0.00000000       3.26433492
Tc       0.00000000       0.00000000       2.41393939       0.00000000       0.00000000      -3.26433492
2
Properties=species:S:1:pos:R:3:forces:R:3 energy=-10.473577623899892 pbc="F F F"
Tc       0.00000000       0.00000000       0.00000000       0.00000000       0.00000000       3.18310452
Tc       0.00000000       0.00000000       2.47272727       0.00000000       0.00000000      -3.18310452
2
Properties=species:S:1:pos:R:3:forces:R:3 energy=-10.292173477198832 pbc="F F F"
Tc       0.00000000       0.00000000       0.00000000       0.00000000       0.00000000       2.97333813
Tc       0.00000000       0.00000000       2.53151515       0.00000000       0.00000000      -2.97333813
2
Properties=species:S:1:pos:R:3:forces:R:3 energy=-10.125035219813718 pbc="F F F"
Tc       0.00000000       0.00000000       0.00000000       0.00000000       0.00000000       2.70409751
Tc       0.00000000       0.00000000       2.59030303       0.00000000       0.00000000      -2.70409751
2
Properties=species:S:1:pos:R:3:forces:R:3 energy=-9.975342586344432 pbc="F F F"
Tc       0.00000000       0.00000000       0.00000000       0.00000000       0.00000000       2.38221025
Tc       0.00000000       0.00000000       2.64909091       0.00000000       0.00000000      -2.38221025
2
Properties=species:S:1:pos:R:3:forces:R:3 energy=-9.844894637401016 pbc="F F F"
Tc       0.00000000       0.00000000       0.00000000       0.00000000       0.00000000       2.06223941
Tc       0.00000000       0.00000000       2.70787879       0.00000000       0.00000000      -2.06223941
2
Properties=species:S:1:pos:R:3:forces:R:3 energy=-9.731720026840609 pbc="F F F"
Tc       0.00000000       0.00000000       0.00000000       0.00000000       0.00000000       1.80005229
Tc       0.00000000       0.00000000       2.76666667       0.00000000       0.00000000      -1.80005229
2
Properties=species:S:1:pos:R:3:forces:R:3 energy=-9.631561319941815 pbc="F F F"
Tc       0.00000000       0.00000000       0.00000000       0.00000000       0.00000000       1.62418532
Tc       0.00000000       0.00000000       2.82545455       0.00000000       0.00000000      -1.62418532
2
Properties=species:S:1:pos:R:3:forces:R:3 energy=-9.538782414850802 pbc="F F F"
Tc       0.00000000       0.00000000       0.00000000       0.00000000       0.00000000       1.54632580
Tc       0.00000000       0.00000000       2.88424242       0.00000000       0.00000000      -1.54632580
2
Properties=species:S:1:pos:R:3:forces:R:3 energy=-9.44876384013993 pbc="F F F"
Tc       0.00000000       0.00000000       0.00000000       0.00000000       0.00000000       1.51880097
Tc       0.00000000       0.00000000       2.94303030       0.00000000       0.00000000      -1.51880097
2
Properties=species:S:1:pos:R:3:forces:R:3 energy=-9.360252308089995 pbc="F F F"
Tc       0.00000000       0.00000000       0.00000000       0.00000000       0.00000000       1.49098802
Tc       0.00000000       0.00000000       3.00181818       0.00000000       0.00000000      -1.49098802
2
Properties=species:S:1:pos:R:3:forces:R:3 energy=-9.273592121670898 pbc="F F F"
Tc       0.00000000       0.00000000       0.00000000       0.00000000       0.00000000       1.45632064
Tc       0.00000000       0.00000000       3.06060606       0.00000000       0.00000000      -1.45632064
2
Properties=species:S:1:pos:R:3:forces:R:3 energy=-9.189173454906747 pbc="F F F"
Tc       0.00000000       0.00000000       0.00000000       0.00000000       0.00000000       1.41409802
Tc       0.00000000       0.00000000       3.11939394       0.00000000       0.00000000      -1.41409802
2
Properties=species:S:1:pos:R:3:forces:R:3 energy=-9.10748645038736 pbc="F F F"
Tc       0.00000000       0.00000000       0.00000000       0.00000000       0.00000000       1.36410546
Tc       0.00000000       0.00000000       3.17818182       0.00000000       0.00000000      -1.36410546
2
Properties=species:S:1:pos:R:3:forces:R:3 energy=-9.028804042917884 pbc="F F F"
Tc       0.00000000       0.00000000       0.00000000       0.00000000       0.00000000       1.31298757
Tc       0.00000000       0.00000000       3.23696970       0.00000000       0.00000000      -1.31298757
2
Properties=species:S:1:pos:R:3:forces:R:3 energy=-8.953093196414061 pbc="F F F"
Tc       0.00000000       0.00000000       0.00000000       0.00000000       0.00000000       1.26266944
Tc       0.00000000       0.00000000       3.29575758       0.00000000       0.00000000      -1.26266944
2
Properties=species:S:1:pos:R:3:forces:R:3 energy=-8.880402149570811 pbc="F F F"
Tc       0.00000000       0.00000000       0.00000000       0.00000000       0.00000000       1.20945334
Tc       0.00000000       0.00000000       3.35454545       0.00000000       0.00000000      -1.20945334
2
Properties=species:S:1:pos:R:3:forces:R:3 energy=-8.811012403726501 pbc="F F F"
Tc       0.00000000       0.00000000       0.00000000       0.00000000       0.00000000       1.15009177
Tc       0.00000000       0.00000000       3.41333333       0.00000000       0.00000000      -1.15009177
2
Properties=species:S:1:pos:R:3:forces:R:3 energy=-8.74530821693058 pbc="F F F"
Tc       0.00000000       0.00000000       0.00000000       0.00000000       0.00000000       1.08420193
Tc       0.00000000       0.00000000       3.47212121       0.00000000       0.00000000      -1.08420193
2
Properties=species:S:1:pos:R:3:forces:R:3 energy=-8.683628825126684 pbc="F F F"
Tc       0.00000000       0.00000000       0.00000000       0.00000000       0.00000000       1.01358104
Tc       0.00000000       0.00000000       3.53090909       0.00000000       0.00000000      -1.01358104
2
Properties=species:S:1:pos:R:3:forces:R:3 energy=-8.626189454919096 pbc="F F F"
Tc       0.00000000       0.00000000       0.00000000       0.00000000       0.00000000       0.94013816
Tc       0.00000000       0.00000000       3.58969697       0.00000000       0.00000000      -0.94013816
2
Properties=species:S:1:pos:R:3:forces:R:3 energy=-8.57313140881745 pbc="F F F"
Tc       0.00000000       0.00000000       0.00000000       0.00000000       0.00000000       0.86462605
Tc       0.00000000       0.00000000       3.64848485       0.00000000       0.00000000      -0.86462605
2
Properties=species:S:1:pos:R:3:forces:R:3 energy=-8.524569894672373 pbc="F F F"
Tc       0.00000000       0.00000000       0.00000000       0.00000000       0.00000000       0.78712350
Tc       0.00000000       0.00000000       3.70727273       0.00000000       0.00000000      -0.78712350
2
Properties=species:S:1:pos:R:3:forces:R:3 energy=-8.480615424662973 pbc="F F F"
Tc       0.00000000       0.00000000       0.00000000       0.00000000       0.00000000       0.70809263
Tc       0.00000000       0.00000000       3.76606061       0.00000000       0.00000000      -0.70809263
2
Properties=species:S:1:pos:R:3:forces:R:3 energy=-8.441323989813542 pbc="F F F"
Tc       0.00000000       0.00000000       0.00000000       0.00000000       0.00000000       0.62880504
Tc       0.00000000       0.00000000       3.82484848       0.00000000       0.00000000      -0.62880504
2
Properties=species:S:1:pos:R:3:forces:R:3 energy=-8.406655491133579 pbc="F F F"
Tc       0.00000000       0.00000000       0.00000000       0.00000000       0.00000000       0.55101764
Tc       0.00000000       0.00000000       3.88363636       0.00000000       0.00000000      -0.55101764
2
Properties=species:S:1:pos:R:3:forces:R:3 energy=-8.376472785943479 pbc="F F F"
Tc       0.00000000       0.00000000       0.00000000       0.00000000       0.00000000       0.47643375
Tc       0.00000000       0.00000000       3.94242424       0.00000000       0.00000000      -0.47643375
2
Properties=species:S:1:pos:R:3:forces:R:3 energy=-8.350548300238302 pbc="F F F"
Tc       0.00000000       0.00000000       0.00000000       0.00000000       0.00000000       0.40635484
Tc       0.00000000       0.00000000       4.00121212       0.00000000       0.00000000      -0.40635484
2
Properties=species:S:1:pos:R:3:forces:R:3 energy=-8.328589891935914 pbc="F F F"
Tc       0.00000000       0.00000000       0.00000000       0.00000000       0.00000000       0.34167874
Tc       0.00000000       0.00000000       4.06000000       0.00000000       0.00000000      -0.34167874
2
Properties=species:S:1:pos:R:3:forces:R:3 energy=-8.3102551369848 pbc="F F F"
Tc       0.00000000       0.00000000       0.00000000       0.00000000       0.00000000       0.28304920
Tc       0.00000000       0.00000000       4.11878788       0.00000000       0.00000000      -0.28304920
2
Properties=species:S:1:pos:R:3:forces:R:3 energy=-8.295179895244043 pbc="F F F"
Tc       0.00000000       0.00000000       0.00000000       0.00000000       0.00000000       0.23093973
Tc       0.00000000       0.00000000       4.17757576       0.00000000       0.00000000      -0.23093973
2
Properties=species:S:1:pos:R:3:forces:R:3 energy=-8.282970478348185 pbc="F F F"
Tc       0.00000000       0.00000000       0.00000000       0.00000000       0.00000000       0.18561500
Tc       0.00000000       0.00000000       4.23636364       0.00000000       0.00000000      -0.18561500
2
Properties=species:S:1:pos:R:3:forces:R:3 energy=-8.273224617870886 pbc="F F F"
Tc       0.00000000       0.00000000       0.00000000       0.00000000       0.00000000       0.14704126
Tc       0.00000000       0.00000000       4.29515152       0.00000000       0.00000000      -0.14704126
2
Properties=species:S:1:pos:R:3:forces:R:3 energy=-8.265555237490755 pbc="F F F"
Tc       0.00000000       0.00000000       0.00000000       0.00000000       0.00000000       0.11485646
Tc       0.00000000       0.00000000       4.35393939       0.00000000       0.00000000      -0.11485646
2
Properties=species:S:1:pos:R:3:forces:R:3 energy=-8.259608173657773 pbc="F F F"
Tc       0.00000000       0.00000000       0.00000000       0.00000000       0.00000000       0.08842353
Tc       0.00000000       0.00000000       4.41272727       0.00000000       0.00000000      -0.08842353
2
Properties=species:S:1:pos:R:3:forces:R:3 energy=-8.255062105901198 pbc="F F F"
Tc       0.00000000       0.00000000       0.00000000       0.00000000       0.00000000       0.06696244
Tc       0.00000000       0.00000000       4.47151515       0.00000000       0.00000000      -0.06696244
2
Properties=species:S:1:pos:R:3:forces:R:3 energy=-8.25165218961122 pbc="F F F"
Tc       0.00000000       0.00000000       0.00000000       0.00000000       0.00000000       0.04968855
Tc       0.00000000       0.00000000       4.53030303       0.00000000       0.00000000      -0.04968855
2
Properties=species:S:1:pos:R:3:forces:R:3 energy=-8.249149819802051 pbc="F F F"
Tc       0.00000000       0.00000000       0.00000000       0.00000000       0.00000000       0.03591862
Tc       0.00000000       0.00000000       4.58909091       0.00000000       0.00000000      -0.03591862
2
Properties=species:S:1:pos:R:3:forces:R:3 energy=-8.247371844737236 pbc="F F F"
Tc       0.00000000       0.00000000       0.00000000       0.00000000       0.00000000       0.02511345
Tc       0.00000000       0.00000000       4.64787879       0.00000000       0.00000000      -0.02511345
2
Properties=species:S:1:pos:R:3:forces:R:3 energy=-8.246147206335499 pbc="F F F"
Tc       0.00000000       0.00000000       0.00000000       0.00000000       0.00000000       0.01686585
Tc       0.00000000       0.00000000       4.70666667       0.00000000       0.00000000      -0.01686585
2
Properties=species:S:1:pos:R:3:forces:R:3 energy=-8.245343199556517 pbc="F F F"
Tc       0.00000000       0.00000000       0.00000000       0.00000000       0.00000000       0.01086085
Tc       0.00000000       0.00000000       4.76545455       0.00000000       0.00000000      -0.01086085
2
Properties=species:S:1:pos:R:3:forces:R:3 energy=-8.244834115190066 pbc="F F F"
Tc       0.00000000       0.00000000       0.00000000       0.00000000       0.00000000       0.00683843
Tc       0.00000000       0.00000000       4.82424242       0.00000000       0.00000000      -0.00683843
2
Properties=species:S:1:pos:R:3:forces:R:3 energy=-8.244506714811795 pbc="F F F"
Tc       0.00000000       0.00000000       0.00000000       0.00000000       0.00000000       0.00457525
Tc       0.00000000       0.00000000       4.88303030       0.00000000       0.00000000      -0.00457525
2
Properties=species:S:1:pos:R:3:forces:R:3 energy=-8.244263880753737 pbc="F F F"
Tc       0.00000000       0.00000000       0.00000000       0.00000000       0.00000000       0.00387604
Tc       0.00000000       0.00000000       4.94181818       0.00000000       0.00000000      -0.00387604
2
Properties=species:S:1:pos:R:3:forces:R:3 energy=-8.244021799430874 pbc="F F F"
Tc       0.00000000       0.00000000       0.00000000       0.00000000       0.00000000       0.00456393
Tc       0.00000000       0.00000000       5.00060606       0.00000000       0.00000000      -0.00456393
2
Properties=species:S:1:pos:R:3:forces:R:3 energy=-8.243703342641721 pbc="F F F"
Tc       0.00000000       0.00000000       0.00000000       0.00000000       0.00000000       0.00645998
Tc       0.00000000       0.00000000       5.05939394       0.00000000       0.00000000      -0.00645998
2
Properties=species:S:1:pos:R:3:forces:R:3 energy=-8.24324455321921 pbc="F F F"
Tc       0.00000000       0.00000000       0.00000000       0.00000000       0.00000000       0.00935000
Tc       0.00000000       0.00000000       5.11818182       0.00000000       0.00000000      -0.00935000
2
Properties=species:S:1:pos:R:3:forces:R:3 energy=-8.242590953878484 pbc="F F F"
Tc       0.00000000       0.00000000       0.00000000       0.00000000       0.00000000       0.01295445
Tc       0.00000000       0.00000000       5.17696970       0.00000000       0.00000000      -0.01295445
2
Properties=species:S:1:pos:R:3:forces:R:3 energy=-8.24171385788277 pbc="F F F"
Tc       0.00000000       0.00000000       0.00000000       0.00000000       0.00000000       0.01691996
Tc       0.00000000       0.00000000       5.23575758       0.00000000       0.00000000      -0.01691996
2
Properties=species:S:1:pos:R:3:forces:R:3 energy=-8.240601751128485 pbc="F F F"
Tc       0.00000000       0.00000000       0.00000000       0.00000000       0.00000000       0.02083904
Tc       0.00000000       0.00000000       5.29454545       0.00000000       0.00000000      -0.02083904
2
Properties=species:S:1:pos:R:3:forces:R:3 energy=-8.239271907299429 pbc="F F F"
Tc       0.00000000       0.00000000       0.00000000       0.00000000       0.00000000       0.02430116
Tc       0.00000000       0.00000000       5.35333333       0.00000000       0.00000000      -0.02430116
2
Properties=species:S:1:pos:R:3:forces:R:3 energy=-8.237760806774105 pbc="F F F"
Tc       0.00000000       0.00000000       0.00000000       0.00000000       0.00000000       0.02695874
Tc       0.00000000       0.00000000       5.41212121       0.00000000       0.00000000      -0.02695874
2
Properties=species:S:1:pos:R:3:forces:R:3 energy=-8.236123404698965 pbc="F F F"
Tc       0.00000000       0.00000000       0.00000000       0.00000000       0.00000000       0.02858860
Tc       0.00000000       0.00000000       5.47090909       0.00000000       0.00000000      -0.02858860
2
Properties=species:S:1:pos:R:3:forces:R:3 energy=-8.23442075222922 pbc="F F F"
Tc       0.00000000       0.00000000       0.00000000       0.00000000       0.00000000       0.02912775
Tc       0.00000000       0.00000000       5.52969697       0.00000000       0.00000000      -0.02912775
2
Properties=species:S:1:pos:R:3:forces:R:3 energy=-8.23271620717415 pbc="F F F"
Tc       0.00000000       0.00000000       0.00000000       0.00000000       0.00000000       0.02867360
Tc       0.00000000       0.00000000       5.58848485       0.00000000       0.00000000      -0.02867360
2
Properties=species:S:1:pos:R:3:forces:R:3 energy=-8.231064259170202 pbc="F F F"
Tc       0.00000000       0.00000000       0.00000000       0.00000000       0.00000000       0.02745262
Tc       0.00000000       0.00000000       5.64727273       0.00000000       0.00000000      -0.02745262
2
Properties=species:S:1:pos:R:3:forces:R:3 energy=-8.229498930365894 pbc="F F F"
Tc       0.00000000       0.00000000       0.00000000       0.00000000       0.00000000       0.02576138
Tc       0.00000000       0.00000000       5.70606061       0.00000000       0.00000000      -0.02576138
2
Properties=species:S:1:pos:R:3:forces:R:3 energy=-8.228037789691884 pbc="F F F"
Tc       0.00000000       0.00000000       0.00000000       0.00000000       0.00000000       0.02390184
Tc       0.00000000       0.00000000       5.76484848       0.00000000       0.00000000      -0.02390184
2
Properties=species:S:1:pos:R:3:forces:R:3 energy=-8.226688726783669 pbc="F F F"
Tc       0.00000000       0.00000000       0.00000000       0.00000000       0.00000000       0.02212268
Tc       0.00000000       0.00000000       5.82363636       0.00000000       0.00000000      -0.02212268
2
Properties=species:S:1:pos:R:3:forces:R:3 energy=-8.225433668242207 pbc="F F F"
Tc       0.00000000       0.00000000       0.00000000       0.00000000       0.00000000       0.02057275
Tc       0.00000000       0.00000000       5.88242424       0.00000000       0.00000000      -0.02057275
2
Properties=species:S:1:pos:R:3:forces:R:3 energy=-8.224262101954816 pbc="F F F"
Tc       0.00000000       0.00000000       0.00000000       0.00000000       0.00000000       0.01928564
Tc       0.00000000       0.00000000       5.94121212       0.00000000       0.00000000      -0.01928564
2
Properties=species:S:1:pos:R:3:forces:R:3 energy=-8.223161565694573 pbc="F F F"
Tc       0.00000000       0.00000000       0.00000000       0.00000000       0.00000000       0.01818999
Tc       0.00000000       0.00000000       6.00000000       0.00000000       0.00000000      -0.01818999
