2
Properties=species:S:1:pos:R:3:forces:R:3 energy=-33652572.05530308 pbc="F F F"
V        0.00000000       0.00000000       0.00000000       0.00000000       0.00000000 296470784.00000000
V        0.00000000       0.00000000       0.18000000       0.00000000       0.00000000 -296470784.00000000
2
Properties=species:S:1:pos:R:3:forces:R:3 energy=-18280046.055303086 pbc="F F F"
V        0.00000000       0.00000000       0.00000000       0.00000000       0.00000000 219244064.00000000
V        0.00000000       0.00000000       0.23878788       0.00000000       0.00000000 -219244064.00000000
2
Properties=species:S:1:pos:R:3:forces:R:3 energy=-8166187.555303085 pbc="F F F"
V        0.00000000       0.00000000       0.00000000       0.00000000       0.00000000 126350368.00000000
V        0.00000000       0.00000000       0.29757576       0.00000000       0.00000000 -126350368.00000000
2
Properties=species:S:1:pos:R:3:forces:R:3 energy=-2929648.5553030786 pbc="F F F"
V        0.00000000       0.00000000       0.00000000       0.00000000       0.00000000 56704296.00000000
V        0.00000000       0.00000000       0.35636364       0.00000000       0.00000000 -56704296.00000000
2
Properties=species:S:1:pos:R:3:forces:R:3 energy=-842420.6803030787 pbc="F F F"
V        0.00000000       0.00000000       0.00000000       0.00000000       0.00000000 19521522.00000000
V        0.00000000       0.00000000       0.41515152       0.00000000       0.00000000 -19521522.00000000
2
Properties=species:S:1:pos:R:3:forces:R:3 energy=-222936.28967805978 pbc="F F F"
V        0.00000000       0.00000000       0.00000000       0.00000000       0.00000000 3738871.25000000
V        0.00000000       0.00000000       0.47393939       0.00000000       0.00000000 -3738871.25000000
2
Properties=species:S:1:pos:R:3:forces:R:3 energy=-72936.55530303443 pbc="F F F"
V        0.00000000       0.00000000       0.00000000       0.00000000       0.00000000 1491005.00000000
V        0.00000000       0.00000000       0.53272727       0.00000000       0.00000000 -1491005.00000000
2
Properties=species:S:1:pos:R:3:forces:R:3 energy=-21021.500615490084 pbc="F F F"
V        0.00000000       0.00000000       0.00000000       0.00000000       0.00000000  371636.09375000
V        0.00000000       0.00000000       0.59151515       0.00000000       0.00000000 -371636.09375000
2
Properties=species:S:1:pos:R:3:forces:R:3 energy=-7962.472783382805 pbc="F F F"
V        0.00000000       0.00000000       0.00000000       0.00000000       0.00000000  128826.48437500
V        0.00000000       0.00000000       0.65030303       0.00000000       0.00000000 -128826.48437500
2
Properties=species:S:1:pos:R:3:forces:R:3 energy=-3444.869023490467 pbc="F F F"
V        0.00000000       0.00000000       0.00000000       0.00000000       0.00000000   44848.74218750
V        0.00000000       0.00000000       0.70909091       0.00000000       0.00000000  -44848.74218750
2
Properties=species:S:1:pos:R:3:forces:R:3 energy=-1586.3438768160227 pbc="F F F"
V        0.00000000       0.00000000       0.00000000       0.00000000       0.00000000   21664.53125000
V        0.00000000       0.00000000       0.76787879       0.00000000       0.00000000  -21664.53125000
2
Properties=species:S:1:pos:R:3:forces:R:3 energy=-698.6335493888168 pbc="F F F"
V        0.00000000       0.00000000       0.00000000       0.00000000       0.00000000    9367.02636719
V        0.00000000       0.00000000       0.82666667       0.00000000       0.00000000   -9367.02636719
2
Properties=species:S:1:pos:R:3:forces:R:3 energy=-321.32449747599935 pbc="F F F"
V        0.00000000       0.00000000       0.00000000       0.00000000       0.00000000    4314.91162109
V        0.00000000       0.00000000       0.88545455       0.00000000       0.00000000   -4314.91162109
2
Properties=species:S:1:pos:R:3:forces:R:3 energy=-136.04111068165827 pbc="F F F"
V        0.00000000       0.00000000       0.00000000       0.00000000       0.00000000    2255.75561523
V        0.00000000       0.00000000       0.94424242       0.00000000       0.00000000   -2255.75561523
2
Properties=species:S:1:pos:R:3:forces:R:3 energy=-36.75661742236952 pbc="F F F"
V        0.00000000       0.00000000       0.00000000       0.00000000       0.00000000    1197.42346191
V        0.00000000       0.00000000       1.00303030       0.00000000       0.00000000   -1197.42346191
2
Properties=species:S:1:pos:R:3:forces:R:3 energy=5.993353092762373 pbc="F F F"
V        0.00000000       0.00000000       0.00000000       0.00000000       0.00000000     316.09814453
V        0.00000000       0.00000000       1.06181818       0.00000000       0.00000000    -316.09814453
2
Properties=species:S:1:pos:R:3:forces:R:3 energy=14.59460607610568 pbc="F F F"
V        0.00000000       0.00000000       0.00000000       0.00000000       0.00000000      33.34365845
V        0.00000000       0.00000000       1.12060606       0.00000000       0.00000000     -33.34365845
2
Properties=species:S:1:pos:R:3:forces:R:3 energy=12.215392641285788 pbc="F F F"
V        0.00000000       0.00000000       0.00000000       0.00000000       0.00000000     -93.73594666
V        0.00000000       0.00000000       1.17939394       0.00000000       0.00000000      93.73594666
2
Properties=species:S:1:pos:R:3:forces:R:3 energy=6.948423384668124 pbc="F F F"
V        0.00000000       0.00000000       0.00000000       0.00000000       0.00000000     -85.00182343
V        0.00000000       0.00000000       1.23818182       0.00000000       0.00000000      85.00182343
2
Properties=species:S:1:pos:R:3:forces:R:3 energy=2.8556891708806114 pbc="F F F"
V        0.00000000       0.00000000       0.00000000       0.00000000       0.00000000     -61.49491119
V        0.00000000       0.00000000       1.29696970       0.00000000       0.00000000      61.49491119
2
Properties=species:S:1:pos:R:3:forces:R:3 energy=-0.34324351547773213 pbc="F F F"
V        0.00000000       0.00000000       0.00000000       0.00000000       0.00000000     -47.57812119
V        0.00000000       0.00000000       1.35575758       0.00000000       0.00000000      47.57812119
2
Properties=species:S:1:pos:R:3:forces:R:3 energy=-2.8326978268678493 pbc="F F F"
V        0.00000000       0.00000000       0.00000000       0.00000000       0.00000000     -37.68121338
V        0.00000000       0.00000000       1.41454545       0.00000000       0.00000000      37.68121338
2
Properties=species:S:1:pos:R:3:forces:R:3 energy=-4.7673499979270515 pbc="F F F"
V        0.00000000       0.00000000       0.00000000       0.00000000       0.00000000     -28.08235931
V        0.00000000       0.00000000       1.47333333       0.00000000       0.00000000      28.08235931
2
Properties=species:S:1:pos:R:3:forces:R:3 energy=-6.1663639113029065 pbc="F F F"
V        0.00000000       0.00000000       0.00000000       0.00000000       0.00000000     -20.23948479
V        0.00000000       0.00000000       1.53212121       0.00000000       0.00000000      20.23948479
2
Properties=species:S:1:pos:R:3:forces:R:3 energy=-7.233791310347765 pbc="F F F"
V        0.00000000       0.00000000       0.00000000       0.00000000       0.00000000     -16.61575127
V        0.00000000       0.00000000       1.59090909       0.00000000       0.00000000      16.61575127
2
Properties=species:S:1:pos:R:3:forces:R:3 energy=-8.13905882798742 pbc="F F F"
V        0.00000000       0.00000000       0.00000000       0.00000000       0.00000000     -13.93374443
V        0.00000000       0.00000000       1.64969697       0.00000000       0.00000000      13.93374443
2
Properties=species:S:1:pos:R:3:forces:R:3 energy=-8.873210172927353 pbc="F F F"
V        0.00000000       0.00000000       0.00000000       0.00000000       0.00000000     -11.02337074
V        0.00000000       0.00000000       1.70848485       0.00000000       0.00000000      11.02337074
2
Properties=species:S:1:pos:R:3:forces:R:3 energy=-9.416385853804677 pbc="F F F"
V        0.00000000       0.00000000       0.00000000       0.00000000       0.00000000      -7.40623713
V        0.00000000       0.00000000       1.76727273       0.00000000       0.00000000       7.40623713
2
Properties=species:S:1:pos:R:3:forces:R:3 energy=-9.769518450059245 pbc="F F F"
V        0.00000000       0.00000000       0.00000000       0.00000000       0.00000000      -4.73148680
V        0.00000000       0.00000000       1.82606061       0.00000000       0.00000000       4.73148680
2
Properties=species:S:1:pos:R:3:forces:R:3 energy=-9.95716794903275 pbc="F F F"
V        0.00000000       0.00000000       0.00000000       0.00000000       0.00000000      -1.86547148
V        0.00000000       0.00000000       1.88484848       0.00000000       0.00000000       1.86547148
2
Properties=species:S:1:pos:R:3:forces:R:3 energy=-10.017306563235033 pbc="F F F"
V        0.00000000       0.00000000       0.00000000       0.00000000       0.00000000      -0.29916430
V        0.00000000       0.00000000       1.94363636       0.00000000       0.00000000       0.29916430
2
Properties=species:S:1:pos:R:3:forces:R:3 energy=-10.000999382496602 pbc="F F F"
V        0.00000000       0.00000000       0.00000000       0.00000000       0.00000000       0.77328306
V        0.00000000       0.00000000       2.00242424       0.00000000       0.00000000      -0.77328306
2
Properties=species:S:1:pos:R:3:forces:R:3 energy=-9.935498216969378 pbc="F F F"
V        0.00000000       0.00000000       0.00000000       0.00000000       0.00000000       1.42001307
V        0.00000000       0.00000000       2.06121212       0.00000000       0.00000000      -1.42001307
2
Properties=species:S:1:pos:R:3:forces:R:3 energy=-9.837339597615037 pbc="F F F"
V        0.00000000       0.00000000       0.00000000       0.00000000       0.00000000       1.87356830
V        0.00000000       0.00000000       2.12000000       0.00000000       0.00000000      -1.87356830
2
Properties=species:S:1:pos:R:3:forces:R:3 energy=-9.721811698083647 pbc="F F F"
V        0.00000000       0.00000000       0.00000000       0.00000000       0.00000000       2.00317240
V        0.00000000       0.00000000       2.17878788       0.00000000       0.00000000      -2.00317240
2
Properties=species:S:1:pos:R:3:forces:R:3 energy=-9.604529107124106 pbc="F F F"
V        0.00000000       0.00000000       0.00000000       0.00000000       0.00000000       1.98161197
V        0.00000000       0.00000000       2.23757576       0.00000000       0.00000000      -1.98161197
2
Properties=species:S:1:pos:R:3:forces:R:3 energy=-9.49242772487002 pbc="F F F"
V        0.00000000       0.00000000       0.00000000       0.00000000       0.00000000       1.78102863
V        0.00000000       0.00000000       2.29636364       0.00000000       0.00000000      -1.78102863
2
Properties=species:S:1:pos:R:3:forces:R:3 energy=-9.399363961988895 pbc="F F F"
V        0.00000000       0.00000000       0.00000000       0.00000000       0.00000000       1.37642407
V        0.00000000       0.00000000       2.35515152       0.00000000       0.00000000      -1.37642407
2
Properties=species:S:1:pos:R:3:forces:R:3 energy=-9.3297316366942 pbc="F F F"
V        0.00000000       0.00000000       0.00000000       0.00000000       0.00000000       1.00593615
V        0.00000000       0.00000000       2.41393939       0.00000000       0.00000000      -1.00593615
2
Properties=species:S:1:pos:R:3:forces:R:3 energy=-9.280006170958364 pbc="F F F"
V        0.00000000       0.00000000       0.00000000       0.00000000       0.00000000       0.68672991
V        0.00000000       0.00000000       2.47272727       0.00000000       0.00000000      -0.68672991
2
Properties=species:S:1:pos:R:3:forces:R:3 energy=-9.248603510680008 pbc="F F F"
V        0.00000000       0.00000000       0.00000000       0.00000000       0.00000000       0.39507315
V        0.00000000       0.00000000       2.53151515       0.00000000       0.00000000      -0.39507315
2
Properties=species:S:1:pos:R:3:forces:R:3 energy=-9.231584737081164 pbc="F F F"
V        0.00000000       0.00000000       0.00000000       0.00000000       0.00000000       0.19576505
V        0.00000000       0.00000000       2.59030303       0.00000000       0.00000000      -0.19576505
2
Properties=species:S:1:pos:R:3:forces:R:3 energy=-9.224825369239248 pbc="F F F"
V        0.00000000       0.00000000       0.00000000       0.00000000       0.00000000       0.03964864
V        0.00000000       0.00000000       2.64909091       0.00000000       0.00000000      -0.03964864
2
Properties=species:S:1:pos:R:3:forces:R:3 energy=-9.22602586902693 pbc="F F F"
V        0.00000000       0.00000000       0.00000000       0.00000000       0.00000000      -0.07148985
V        0.00000000       0.00000000       2.70787879       0.00000000       0.00000000       0.07148985
2
Properties=species:S:1:pos:R:3:forces:R:3 energy=-9.232271832389612 pbc="F F F"
V        0.00000000       0.00000000       0.00000000       0.00000000       0.00000000      -0.13430414
V        0.00000000       0.00000000       2.76666667       0.00000000       0.00000000       0.13430414
2
Properties=species:S:1:pos:R:3:forces:R:3 energy=-9.241142636125758 pbc="F F F"
V        0.00000000       0.00000000       0.00000000       0.00000000       0.00000000      -0.16177903
V        0.00000000       0.00000000       2.82545455       0.00000000       0.00000000       0.16177903
2
Properties=species:S:1:pos:R:3:forces:R:3 energy=-9.250470146330182 pbc="F F F"
V        0.00000000       0.00000000       0.00000000       0.00000000       0.00000000      -0.14711055
V        0.00000000       0.00000000       2.88424242       0.00000000       0.00000000       0.14711055
2
Properties=species:S:1:pos:R:3:forces:R:3 energy=-9.257380417867264 pbc="F F F"
V        0.00000000       0.00000000       0.00000000       0.00000000       0.00000000      -0.07961310
V        0.00000000       0.00000000       2.94303030       0.00000000       0.00000000       0.07961310
2
Properties=species:S:1:pos:R:3:forces:R:3 energy=-9.25915832247575 pbc="F F F"
V        0.00000000       0.00000000       0.00000000       0.00000000       0.00000000       0.02160144
V        0.00000000       0.00000000       3.00181818       0.00000000       0.00000000      -0.02160144
2
Properties=species:S:1:pos:R:3:forces:R:3 energy=-9.254906077950546 pbc="F F F"
V        0.00000000       0.00000000       0.00000000       0.00000000       0.00000000       0.12020925
V        0.00000000       0.00000000       3.06060606       0.00000000       0.00000000      -0.12020925
2
Properties=species:S:1:pos:R:3:forces:R:3 energy=-9.245476416499812 pbc="F F F"
V        0.00000000       0.00000000       0.00000000       0.00000000       0.00000000       0.19645235
V        0.00000000       0.00000000       3.11939394       0.00000000       0.00000000      -0.19645235
2
Properties=species:S:1:pos:R:3:forces:R:3 energy=-9.23223883829532 pbc="F F F"
V        0.00000000       0.00000000       0.00000000       0.00000000       0.00000000       0.25093046
V        0.00000000       0.00000000       3.17818182       0.00000000       0.00000000      -0.25093046
2
Properties=species:S:1:pos:R:3:forces:R:3 energy=-9.216238657005134 pbc="F F F"
V        0.00000000       0.00000000       0.00000000       0.00000000       0.00000000       0.29162371
V        0.00000000       0.00000000       3.23696970       0.00000000       0.00000000      -0.29162371
2
Properties=species:S:1:pos:R:3:forces:R:3 energy=-9.198126223641388 pbc="F F F"
V        0.00000000       0.00000000       0.00000000       0.00000000       0.00000000       0.32319644
V        0.00000000       0.00000000       3.29575758       0.00000000       0.00000000      -0.32319644
2
Properties=species:S:1:pos:R:3:forces:R:3 energy=-9.178414493533268 pbc="F F F"
V        0.00000000       0.00000000       0.00000000       0.00000000       0.00000000       0.34583327
V        0.00000000       0.00000000       3.35454545       0.00000000       0.00000000      -0.34583327
2
Properties=species:S:1:pos:R:3:forces:R:3 energy=-9.157651926946617 pbc="F F F"
V        0.00000000       0.00000000       0.00000000       0.00000000       0.00000000       0.35899252
V        0.00000000       0.00000000       3.41333333       0.00000000       0.00000000      -0.35899252
2
Properties=species:S:1:pos:R:3:forces:R:3 energy=-9.136369336369947 pbc="F F F"
V        0.00000000       0.00000000       0.00000000       0.00000000       0.00000000       0.36388275
V        0.00000000       0.00000000       3.47212121       0.00000000       0.00000000      -0.36388275
2
Properties=species:S:1:pos:R:3:forces:R:3 energy=-9.11497876312077 pbc="F F F"
V        0.00000000       0.00000000       0.00000000       0.00000000       0.00000000       0.36313078
V        0.00000000       0.00000000       3.53090909       0.00000000       0.00000000      -0.36313078
2
Properties=species:S:1:pos:R:3:forces:R:3 energy=-9.0937405796141 pbc="F F F"
V        0.00000000       0.00000000       0.00000000       0.00000000       0.00000000       0.35897341
V        0.00000000       0.00000000       3.58969697       0.00000000       0.00000000      -0.35897341
2
Properties=species:S:1:pos:R:3:forces:R:3 energy=-9.072821457427455 pbc="F F F"
V        0.00000000       0.00000000       0.00000000       0.00000000       0.00000000       0.35222065
V        0.00000000       0.00000000       3.64848485       0.00000000       0.00000000      -0.35222065
2
Properties=species:S:1:pos:R:3:forces:R:3 energy=-9.052380308703267 pbc="F F F"
V        0.00000000       0.00000000       0.00000000       0.00000000       0.00000000       0.34271735
V        0.00000000       0.00000000       3.70727273       0.00000000       0.00000000      -0.34271735
2
Properties=species:S:1:pos:R:3:forces:R:3 energy=-9.032582578592335 pbc="F F F"
V        0.00000000       0.00000000       0.00000000       0.00000000       0.00000000       0.33031976
V        0.00000000       0.00000000       3.76606061       0.00000000       0.00000000      -0.33031976
2
Properties=species:S:1:pos:R:3:forces:R:3 energy=-9.013591674856267 pbc="F F F"
V        0.00000000       0.00000000       0.00000000       0.00000000       0.00000000       0.31540117
V        0.00000000       0.00000000       3.82484848       0.00000000       0.00000000      -0.31540117
2
Properties=species:S:1:pos:R:3:forces:R:3 energy=-8.995535091758484 pbc="F F F"
V        0.00000000       0.00000000       0.00000000       0.00000000       0.00000000       0.29873425
V        0.00000000       0.00000000       3.88363636       0.00000000       0.00000000      -0.29873425
2
Properties=species:S:1:pos:R:3:forces:R:3 energy=-8.978486825773986 pbc="F F F"
V        0.00000000       0.00000000       0.00000000       0.00000000       0.00000000       0.28112707
V        0.00000000       0.00000000       3.94242424       0.00000000       0.00000000      -0.28112707
2
Properties=species:S:1:pos:R:3:forces:R:3 energy=-8.962487896930273 pbc="F F F"
V        0.00000000       0.00000000       0.00000000       0.00000000       0.00000000       0.26319024
V        0.00000000       0.00000000       4.00121212       0.00000000       0.00000000      -0.26319024
2
Properties=species:S:1:pos:R:3:forces:R:3 energy=-8.947540354328723 pbc="F F F"
V        0.00000000       0.00000000       0.00000000       0.00000000       0.00000000       0.24538866
V        0.00000000       0.00000000       4.06000000       0.00000000       0.00000000      -0.24538866
2
Properties=species:S:1:pos:R:3:forces:R:3 energy=-8.933622978428764 pbc="F F F"
V        0.00000000       0.00000000       0.00000000       0.00000000       0.00000000       0.22819640
V        0.00000000       0.00000000       4.11878788       0.00000000       0.00000000      -0.22819640
2
Properties=species:S:1:pos:R:3:forces:R:3 energy=-8.920687666083253 pbc="F F F"
V        0.00000000       0.00000000       0.00000000       0.00000000       0.00000000       0.21210711
V        0.00000000       0.00000000       4.17757576       0.00000000       0.00000000      -0.21210711
2
Properties=species:S:1:pos:R:3:forces:R:3 energy=-8.90865515634715 pbc="F F F"
V        0.00000000       0.00000000       0.00000000       0.00000000       0.00000000       0.19750535
V        0.00000000       0.00000000       4.23636364       0.00000000       0.00000000      -0.19750535
2
Properties=species:S:1:pos:R:3:forces:R:3 energy=-8.897433856873715 pbc="F F F"
V        0.00000000       0.00000000       0.00000000       0.00000000       0.00000000       0.18451723
V        0.00000000       0.00000000       4.29515152       0.00000000       0.00000000      -0.18451723
2
Properties=species:S:1:pos:R:3:forces:R:3 energy=-8.886932127639025 pbc="F F F"
V        0.00000000       0.00000000       0.00000000       0.00000000       0.00000000       0.17299172
V        0.00000000       0.00000000       4.35393939       0.00000000       0.00000000      -0.17299172
2
Properties=species:S:1:pos:R:3:forces:R:3 energy=-8.87707213622598 pbc="F F F"
V        0.00000000       0.00000000       0.00000000       0.00000000       0.00000000       0.16259053
V        0.00000000       0.00000000       4.41272727       0.00000000       0.00000000      -0.16259053
2
Properties=species:S:1:pos:R:3:forces:R:3 energy=-8.86779955929421 pbc="F F F"
V        0.00000000       0.00000000       0.00000000       0.00000000       0.00000000       0.15293756
V        0.00000000       0.00000000       4.47151515       0.00000000       0.00000000      -0.15293756
2
Properties=species:S:1:pos:R:3:forces:R:3 energy=-8.859082274109687 pbc="F F F"
V        0.00000000       0.00000000       0.00000000       0.00000000       0.00000000       0.14373481
V        0.00000000       0.00000000       4.53030303       0.00000000       0.00000000      -0.14373481
2
Properties=species:S:1:pos:R:3:forces:R:3 energy=-8.85089587603193 pbc="F F F"
V        0.00000000       0.00000000       0.00000000       0.00000000       0.00000000       0.13482428
V        0.00000000       0.00000000       4.58909091       0.00000000       0.00000000      -0.13482428
2
Properties=species:S:1:pos:R:3:forces:R:3 energy=-8.843224290063537 pbc="F F F"
V        0.00000000       0.00000000       0.00000000       0.00000000       0.00000000       0.12618878
V        0.00000000       0.00000000       4.64787879       0.00000000       0.00000000      -0.12618878
2
Properties=species:S:1:pos:R:3:forces:R:3 energy=-8.83605214145565 pbc="F F F"
V        0.00000000       0.00000000       0.00000000       0.00000000       0.00000000       0.11790773
V        0.00000000       0.00000000       4.70666667       0.00000000       0.00000000      -0.11790773
2
Properties=species:S:1:pos:R:3:forces:R:3 energy=-8.829352003145761 pbc="F F F"
V        0.00000000       0.00000000       0.00000000       0.00000000       0.00000000       0.11010695
V        0.00000000       0.00000000       4.76545455       0.00000000       0.00000000      -0.11010695
2
Properties=species:S:1:pos:R:3:forces:R:3 energy=-8.823092953483984 pbc="F F F"
V        0.00000000       0.00000000       0.00000000       0.00000000       0.00000000       0.10291308
V        0.00000000       0.00000000       4.82424242       0.00000000       0.00000000      -0.10291308
2
Properties=species:S:1:pos:R:3:forces:R:3 energy=-8.817238453472514 pbc="F F F"
V        0.00000000       0.00000000       0.00000000       0.00000000       0.00000000       0.09642752
V        0.00000000       0.00000000       4.88303030       0.00000000       0.00000000      -0.09642752
2
Properties=species:S:1:pos:R:3:forces:R:3 energy=-8.811741470688098 pbc="F F F"
V        0.00000000       0.00000000       0.00000000       0.00000000       0.00000000       0.09071699
V        0.00000000       0.00000000       4.94181818       0.00000000       0.00000000      -0.09071699
2
Properties=species:S:1:pos:R:3:forces:R:3 energy=-8.806556823195157 pbc="F F F"
V        0.00000000       0.00000000       0.00000000       0.00000000       0.00000000       0.08580127
V        0.00000000       0.00000000       5.00060606       0.00000000       0.00000000      -0.08580127
2
Properties=species:S:1:pos:R:3:forces:R:3 energy=-8.801638388214945 pbc="F F F"
V        0.00000000       0.00000000       0.00000000       0.00000000       0.00000000       0.08163610
V        0.00000000       0.00000000       5.05939394       0.00000000       0.00000000      -0.08163610
2
Properties=species:S:1:pos:R:3:forces:R:3 energy=-8.796945575105129 pbc="F F F"
V        0.00000000       0.00000000       0.00000000       0.00000000       0.00000000       0.07809643
V        0.00000000       0.00000000       5.11818182       0.00000000       0.00000000      -0.07809643
2
Properties=species:S:1:pos:R:3:forces:R:3 energy=-8.79244824261902 pbc="F F F"
V        0.00000000       0.00000000       0.00000000       0.00000000       0.00000000       0.07496894
V        0.00000000       0.00000000       5.17696970       0.00000000       0.00000000      -0.07496894
2
Properties=species:S:1:pos:R:3:forces:R:3 energy=-8.788128603086383 pbc="F F F"
V        0.00000000       0.00000000       0.00000000       0.00000000       0.00000000       0.07196747
V        0.00000000       0.00000000       5.23575758       0.00000000       0.00000000      -0.07196747
2
Properties=species:S:1:pos:R:3:forces:R:3 energy=-8.783990841519975 pbc="F F F"
V        0.00000000       0.00000000       0.00000000       0.00000000       0.00000000       0.06877308
V        0.00000000       0.00000000       5.29454545       0.00000000       0.00000000      -0.06877308
2
Properties=species:S:1:pos:R:3:forces:R:3 energy=-8.780051642228823 pbc="F F F"
V        0.00000000       0.00000000       0.00000000       0.00000000       0.00000000       0.06509867
V        0.00000000       0.00000000       5.35333333       0.00000000       0.00000000      -0.06509867
2
Properties=species:S:1:pos:R:3:forces:R:3 energy=-8.776348787726189 pbc="F F F"
V        0.00000000       0.00000000       0.00000000       0.00000000       0.00000000       0.06075522
V        0.00000000       0.00000000       5.41212121       0.00000000       0.00000000      -0.06075522
2
Properties=species:S:1:pos:R:3:forces:R:3 energy=-8.772922268976918 pbc="F F F"
V        0.00000000       0.00000000       0.00000000       0.00000000       0.00000000       0.05570192
V        0.00000000       0.00000000       5.47090909       0.00000000       0.00000000      -0.05570192
2
Properties=species:S:1:pos:R:3:forces:R:3 energy=-8.769811456052716 pbc="F F F"
V        0.00000000       0.00000000       0.00000000       0.00000000       0.00000000       0.05006103
V        0.00000000       0.00000000       5.52969697       0.00000000       0.00000000      -0.05006103
2
Properties=species:S:1:pos:R:3:forces:R:3 energy=-8.767042744715544 pbc="F F F"
V        0.00000000       0.00000000       0.00000000       0.00000000       0.00000000       0.04410808
V        0.00000000       0.00000000       5.58848485       0.00000000       0.00000000      -0.04410808
2
Properties=species:S:1:pos:R:3:forces:R:3 energy=-8.764624993954474 pbc="F F F"
V        0.00000000       0.00000000       0.00000000       0.00000000       0.00000000       0.03821553
V        0.00000000       0.00000000       5.64727273       0.00000000       0.00000000      -0.03821553
2
Properties=species:S:1:pos:R:3:forces:R:3 energy=-8.76254184590601 pbc="F F F"
V        0.00000000       0.00000000       0.00000000       0.00000000       0.00000000       0.03278000
V        0.00000000       0.00000000       5.70606061       0.00000000       0.00000000      -0.03278000
2
Properties=species:S:1:pos:R:3:forces:R:3 energy=-8.760754696166895 pbc="F F F"
V        0.00000000       0.00000000       0.00000000       0.00000000       0.00000000       0.02813853
V        0.00000000       0.00000000       5.76484848       0.00000000       0.00000000      -0.02813853
2
Properties=species:S:1:pos:R:3:forces:R:3 energy=-8.759212390512294 pbc="F F F"
V        0.00000000       0.00000000       0.00000000       0.00000000       0.00000000       0.02450854
V        0.00000000       0.00000000       5.82363636       0.00000000       0.00000000      -0.02450854
2
Properties=species:S:1:pos:R:3:forces:R:3 energy=-8.757853035625857 pbc="F F F"
V        0.00000000       0.00000000       0.00000000       0.00000000       0.00000000       0.02191942
V        0.00000000       0.00000000       5.88242424       0.00000000       0.00000000      -0.02191942
2
Properties=species:S:1:pos:R:3:forces:R:3 energy=-8.756617505763428 pbc="F F F"
V        0.00000000       0.00000000       0.00000000       0.00000000       0.00000000       0.02020220
V        0.00000000       0.00000000       5.94121212       0.00000000       0.00000000      -0.02020220
2
Properties=species:S:1:pos:R:3:forces:R:3 energy=-8.755467594243276 pbc="F F F"
V        0.00000000       0.00000000       0.00000000       0.00000000       0.00000000       0.01901128
V        0.00000000       0.00000000       6.00000000       0.00000000       0.00000000      -0.01901128
