2
Properties=species:S:1:pos:R:3:forces:R:3 energy=7982.159732398647 pbc="F F F"
Ag       0.00000000       0.00000000       0.00000000       0.00000000       0.00000000 -131495.53125000
Ag       0.00000000       0.00000000       0.18000000       0.00000000       0.00000000  131495.53125000
2
Properties=species:S:1:pos:R:3:forces:R:3 energy=3300.416568336147 pbc="F F F"
Ag       0.00000000       0.00000000       0.00000000       0.00000000       0.00000000  -45493.32421875
Ag       0.00000000       0.00000000       0.23878788       0.00000000       0.00000000   45493.32421875
2
Properties=species:S:1:pos:R:3:forces:R:3 energy=1553.003238258022 pbc="F F F"
Ag       0.00000000       0.00000000       0.00000000       0.00000000       0.00000000  -18553.23828125
Ag       0.00000000       0.00000000       0.29757576       0.00000000       0.00000000   18553.23828125
2
Properties=species:S:1:pos:R:3:forces:R:3 energy=805.4881625775961 pbc="F F F"
Ag       0.00000000       0.00000000       0.00000000       0.00000000       0.00000000   -8385.41992188
Ag       0.00000000       0.00000000       0.35636364       0.00000000       0.00000000    8385.41992188
2
Properties=species:S:1:pos:R:3:forces:R:3 energy=456.24289280854117 pbc="F F F"
Ag       0.00000000       0.00000000       0.00000000       0.00000000       0.00000000   -4072.85107422
Ag       0.00000000       0.00000000       0.41515152       0.00000000       0.00000000    4072.85107422
2
Properties=species:S:1:pos:R:3:forces:R:3 energy=282.0307956564115 pbc="F F F"
Ag       0.00000000       0.00000000       0.00000000       0.00000000       0.00000000   -2098.28979492
Ag       0.00000000       0.00000000       0.47393939       0.00000000       0.00000000    2098.28979492
2
Properties=species:S:1:pos:R:3:forces:R:3 energy=189.97409402476566 pbc="F F F"
Ag       0.00000000       0.00000000       0.00000000       0.00000000       0.00000000   -1144.66992188
Ag       0.00000000       0.00000000       0.53272727       0.00000000       0.00000000    1144.66992188
2
Properties=species:S:1:pos:R:3:forces:R:3 energy=138.31634871095488 pbc="F F F"
Ag       0.00000000       0.00000000       0.00000000       0.00000000       0.00000000    -666.03411865
Ag       0.00000000       0.00000000       0.59151515       0.00000000       0.00000000     666.03411865
2
Properties=species:S:1:pos:R:3:forces:R:3 energy=107.20482993345497 pbc="F F F"
Ag       0.00000000       0.00000000       0.00000000       0.00000000       0.00000000    -418.90350342
Ag       0.00000000       0.00000000       0.65030303       0.00000000       0.00000000     418.90350342
2
Properties=species:S:1:pos:R:3:forces:R:3 energy=86.82294071690613 pbc="F F F"
Ag       0.00000000       0.00000000       0.00000000       0.00000000       0.00000000    -287.89691162
Ag       0.00000000       0.00000000       0.70909091       0.00000000       0.00000000     287.89691162
2
Properties=species:S:1:pos:R:3:forces:R:3 energy=72.22243126975643 pbc="F F F"
Ag       0.00000000       0.00000000       0.00000000       0.00000000       0.00000000    -215.59431458
Ag       0.00000000       0.00000000       0.76787879       0.00000000       0.00000000     215.59431458
2
Properties=species:S:1:pos:R:3:forces:R:3 energy=60.900780099288006 pbc="F F F"
Ag       0.00000000       0.00000000       0.00000000       0.00000000       0.00000000    -172.96865845
Ag       0.00000000       0.00000000       0.82666667       0.00000000       0.00000000     172.96865845
2
Properties=species:S:1:pos:R:3:forces:R:3 energy=51.60857088269292 pbc="F F F"
Ag       0.00000000       0.00000000       0.00000000       0.00000000       0.00000000    -144.82232666
Ag       0.00000000       0.00000000       0.88545455       0.00000000       0.00000000     144.82232666
2
Properties=species:S:1:pos:R:3:forces:R:3 energy=43.705850054207254 pbc="F F F"
Ag       0.00000000       0.00000000       0.00000000       0.00000000       0.00000000    -125.14652252
Ag       0.00000000       0.00000000       0.94424242       0.00000000       0.00000000     125.14652252
2
Properties=species:S:1:pos:R:3:forces:R:3 energy=36.849382645479196 pbc="F F F"
Ag       0.00000000       0.00000000       0.00000000       0.00000000       0.00000000    -107.75203705
Ag       0.00000000       0.00000000       1.00303030       0.00000000       0.00000000     107.75203705
2
Properties=species:S:1:pos:R:3:forces:R:3 energy=31.113208182261534 pbc="F F F"
Ag       0.00000000       0.00000000       0.00000000       0.00000000       0.00000000     -86.86245728
Ag       0.00000000       0.00000000       1.06181818       0.00000000       0.00000000      86.86245728
2
Properties=species:S:1:pos:R:3:forces:R:3 energy=26.629666208617582 pbc="F F F"
Ag       0.00000000       0.00000000       0.00000000       0.00000000       0.00000000     -66.41118622
Ag       0.00000000       0.00000000       1.12060606       0.00000000       0.00000000      66.41118622
2
Properties=species:S:1:pos:R:3:forces:R:3 energy=23.180472209480598 pbc="F F F"
Ag       0.00000000       0.00000000       0.00000000       0.00000000       0.00000000     -51.86871338
Ag       0.00000000       0.00000000       1.17939394       0.00000000       0.00000000      51.86871338
2
Properties=species:S:1:pos:R:3:forces:R:3 energy=20.467618324300823 pbc="F F F"
Ag       0.00000000       0.00000000       0.00000000       0.00000000       0.00000000     -40.88590240
Ag       0.00000000       0.00000000       1.23818182       0.00000000       0.00000000      40.88590240
2
Properties=species:S:1:pos:R:3:forces:R:3 energy=18.262241917339967 pbc="F F F"
Ag       0.00000000       0.00000000       0.00000000       0.00000000       0.00000000     -35.44926071
Ag       0.00000000       0.00000000       1.29696970       0.00000000       0.00000000      35.44926071
2
Properties=species:S:1:pos:R:3:forces:R:3 energy=16.15010515824363 pbc="F F F"
Ag       0.00000000       0.00000000       0.00000000       0.00000000       0.00000000     -37.58885574
Ag       0.00000000       0.00000000       1.35575758       0.00000000       0.00000000      37.58885574
2
Properties=species:S:1:pos:R:3:forces:R:3 energy=13.761711866218546 pbc="F F F"
Ag       0.00000000       0.00000000       0.00000000       0.00000000       0.00000000     -43.36364365
Ag       0.00000000       0.00000000       1.41454545       0.00000000       0.00000000      43.36364365
2
Properties=species:S:1:pos:R:3:forces:R:3 energy=11.21318067192882 pbc="F F F"
Ag       0.00000000       0.00000000       0.00000000       0.00000000       0.00000000     -41.52726364
Ag       0.00000000       0.00000000       1.47333333       0.00000000       0.00000000      41.52726364
2
Properties=species:S:1:pos:R:3:forces:R:3 energy=9.006121602535915 pbc="F F F"
Ag       0.00000000       0.00000000       0.00000000       0.00000000       0.00000000     -33.48426056
Ag       0.00000000       0.00000000       1.53212121       0.00000000       0.00000000      33.48426056
2
Properties=species:S:1:pos:R:3:forces:R:3 energy=7.222656286856328 pbc="F F F"
Ag       0.00000000       0.00000000       0.00000000       0.00000000       0.00000000     -27.72496986
Ag       0.00000000       0.00000000       1.59090909       0.00000000       0.00000000      27.72496986
2
Properties=species:S:1:pos:R:3:forces:R:3 energy=5.708040397573787 pbc="F F F"
Ag       0.00000000       0.00000000       0.00000000       0.00000000       0.00000000     -23.94664574
Ag       0.00000000       0.00000000       1.64969697       0.00000000       0.00000000      23.94664574
2
Properties=species:S:1:pos:R:3:forces:R:3 energy=4.39834756419663 pbc="F F F"
Ag       0.00000000       0.00000000       0.00000000       0.00000000       0.00000000     -20.66879654
Ag       0.00000000       0.00000000       1.70848485       0.00000000       0.00000000      20.66879654
2
Properties=species:S:1:pos:R:3:forces:R:3 energy=3.269525305343031 pbc="F F F"
Ag       0.00000000       0.00000000       0.00000000       0.00000000       0.00000000     -17.81541252
Ag       0.00000000       0.00000000       1.76727273       0.00000000       0.00000000      17.81541252
2
Properties=species:S:1:pos:R:3:forces:R:3 energy=2.2943480521044797 pbc="F F F"
Ag       0.00000000       0.00000000       0.00000000       0.00000000       0.00000000     -15.43238735
Ag       0.00000000       0.00000000       1.82606061       0.00000000       0.00000000      15.43238735
2
Properties=species:S:1:pos:R:3:forces:R:3 energy=1.4481002600238655 pbc="F F F"
Ag       0.00000000       0.00000000       0.00000000       0.00000000       0.00000000     -13.40329075
Ag       0.00000000       0.00000000       1.88484848       0.00000000       0.00000000      13.40329075
2
Properties=species:S:1:pos:R:3:forces:R:3 energy=0.7144521621175282 pbc="F F F"
Ag       0.00000000       0.00000000       0.00000000       0.00000000       0.00000000     -11.57998943
Ag       0.00000000       0.00000000       1.94363636       0.00000000       0.00000000      11.57998943
2
Properties=species:S:1:pos:R:3:forces:R:3 energy=0.08442610570953865 pbc="F F F"
Ag       0.00000000       0.00000000       0.00000000       0.00000000       0.00000000      -9.86876297
Ag       0.00000000       0.00000000       2.00242424       0.00000000       0.00000000       9.86876297
2
Properties=species:S:1:pos:R:3:forces:R:3 energy=-0.4475784882479926 pbc="F F F"
Ag       0.00000000       0.00000000       0.00000000       0.00000000       0.00000000      -8.24618340
Ag       0.00000000       0.00000000       2.06121212       0.00000000       0.00000000       8.24618340
2
Properties=species:S:1:pos:R:3:forces:R:3 energy=-0.8872935674400402 pbc="F F F"
Ag       0.00000000       0.00000000       0.00000000       0.00000000       0.00000000      -6.73446989
Ag       0.00000000       0.00000000       2.12000000       0.00000000       0.00000000       6.73446989
2
Properties=species:S:1:pos:R:3:forces:R:3 energy=-1.2421714268229516 pbc="F F F"
Ag       0.00000000       0.00000000       0.00000000       0.00000000       0.00000000      -5.36401653
Ag       0.00000000       0.00000000       2.17878788       0.00000000       0.00000000       5.36401653
2
Properties=species:S:1:pos:R:3:forces:R:3 energy=-1.521032704351265 pbc="F F F"
Ag       0.00000000       0.00000000       0.00000000       0.00000000       0.00000000      -4.14906693
Ag       0.00000000       0.00000000       2.23757576       0.00000000       0.00000000       4.14906693
2
Properties=species:S:1:pos:R:3:forces:R:3 energy=-1.732997551903491 pbc="F F F"
Ag       0.00000000       0.00000000       0.00000000       0.00000000       0.00000000      -3.08693314
Ag       0.00000000       0.00000000       2.29636364       0.00000000       0.00000000       3.08693314
2
Properties=species:S:1:pos:R:3:forces:R:3 energy=-1.886825160301189 pbc="F F F"
Ag       0.00000000       0.00000000       0.00000000       0.00000000       0.00000000      -2.17014670
Ag       0.00000000       0.00000000       2.35515152       0.00000000       0.00000000       2.17014670
2
Properties=species:S:1:pos:R:3:forces:R:3 energy=-1.9909100649889422 pbc="F F F"
Ag       0.00000000       0.00000000       0.00000000       0.00000000       0.00000000      -1.39405298
Ag       0.00000000       0.00000000       2.41393939       0.00000000       0.00000000       1.39405298
2
Properties=species:S:1:pos:R:3:forces:R:3 energy=-2.0534188532510127 pbc="F F F"
Ag       0.00000000       0.00000000       0.00000000       0.00000000       0.00000000      -0.75486803
Ag       0.00000000       0.00000000       2.47272727       0.00000000       0.00000000       0.75486803
2
Properties=species:S:1:pos:R:3:forces:R:3 energy=-2.0821952192679976 pbc="F F F"
Ag       0.00000000       0.00000000       0.00000000       0.00000000       0.00000000      -0.24463424
Ag       0.00000000       0.00000000       2.53151515       0.00000000       0.00000000       0.24463424
2
Properties=species:S:1:pos:R:3:forces:R:3 energy=-2.08444042154456 pbc="F F F"
Ag       0.00000000       0.00000000       0.00000000       0.00000000       0.00000000       0.15045431
Ag       0.00000000       0.00000000       2.59030303       0.00000000       0.00000000      -0.15045431
2
Properties=species:S:1:pos:R:3:forces:R:3 energy=-2.0664123696726553 pbc="F F F"
Ag       0.00000000       0.00000000       0.00000000       0.00000000       0.00000000       0.44825599
Ag       0.00000000       0.00000000       2.64909091       0.00000000       0.00000000      -0.44825599
2
Properties=species:S:1:pos:R:3:forces:R:3 energy=-2.0332720497932337 pbc="F F F"
Ag       0.00000000       0.00000000       0.00000000       0.00000000       0.00000000       0.66762042
Ag       0.00000000       0.00000000       2.70787879       0.00000000       0.00000000      -0.66762042
2
Properties=species:S:1:pos:R:3:forces:R:3 energy=-1.9891123516471123 pbc="F F F"
Ag       0.00000000       0.00000000       0.00000000       0.00000000       0.00000000       0.82581455
Ag       0.00000000       0.00000000       2.76666667       0.00000000       0.00000000      -0.82581455
2
Properties=species:S:1:pos:R:3:forces:R:3 energy=-1.9370976929579495 pbc="F F F"
Ag       0.00000000       0.00000000       0.00000000       0.00000000       0.00000000       0.93687314
Ag       0.00000000       0.00000000       2.82545455       0.00000000       0.00000000      -0.93687314
2
Properties=species:S:1:pos:R:3:forces:R:3 energy=-1.879680120694966 pbc="F F F"
Ag       0.00000000       0.00000000       0.00000000       0.00000000       0.00000000       1.01102936
Ag       0.00000000       0.00000000       2.88424242       0.00000000       0.00000000      -1.01102936
2
Properties=species:S:1:pos:R:3:forces:R:3 energy=-1.8188016574267127 pbc="F F F"
Ag       0.00000000       0.00000000       0.00000000       0.00000000       0.00000000       1.05577934
Ag       0.00000000       0.00000000       2.94303030       0.00000000       0.00000000      -1.05577934
2
Properties=species:S:1:pos:R:3:forces:R:3 energy=-1.755968367617707 pbc="F F F"
Ag       0.00000000       0.00000000       0.00000000       0.00000000       0.00000000       1.07913482
Ag       0.00000000       0.00000000       3.00181818       0.00000000       0.00000000      -1.07913482
2
Properties=species:S:1:pos:R:3:forces:R:3 energy=-1.692121113700488 pbc="F F F"
Ag       0.00000000       0.00000000       0.00000000       0.00000000       0.00000000       1.09228086
Ag       0.00000000       0.00000000       3.06060606       0.00000000       0.00000000      -1.09228086
2
Properties=species:S:1:pos:R:3:forces:R:3 energy=-1.6275462314345353 pbc="F F F"
Ag       0.00000000       0.00000000       0.00000000       0.00000000       0.00000000       1.10491633
Ag       0.00000000       0.00000000       3.11939394       0.00000000       0.00000000      -1.10491633
2
Properties=species:S:1:pos:R:3:forces:R:3 energy=-1.5621966635862534 pbc="F F F"
Ag       0.00000000       0.00000000       0.00000000       0.00000000       0.00000000       1.11802495
Ag       0.00000000       0.00000000       3.17818182       0.00000000       0.00000000      -1.11802495
2
Properties=species:S:1:pos:R:3:forces:R:3 energy=-1.4961733212959656 pbc="F F F"
Ag       0.00000000       0.00000000       0.00000000       0.00000000       0.00000000       1.12714398
Ag       0.00000000       0.00000000       3.23696970       0.00000000       0.00000000      -1.12714398
2
Properties=species:S:1:pos:R:3:forces:R:3 energy=-1.4298174852962346 pbc="F F F"
Ag       0.00000000       0.00000000       0.00000000       0.00000000       0.00000000       1.12890601
Ag       0.00000000       0.00000000       3.29575758       0.00000000       0.00000000      -1.12890601
2
Properties=species:S:1:pos:R:3:forces:R:3 energy=-1.3636191859333795 pbc="F F F"
Ag       0.00000000       0.00000000       0.00000000       0.00000000       0.00000000       1.12157094
Ag       0.00000000       0.00000000       3.35454545       0.00000000       0.00000000      -1.12157094
2
Properties=species:S:1:pos:R:3:forces:R:3 energy=-1.2981569429224056 pbc="F F F"
Ag       0.00000000       0.00000000       0.00000000       0.00000000       0.00000000       1.10356057
Ag       0.00000000       0.00000000       3.41333333       0.00000000       0.00000000      -1.10356057
2
Properties=species:S:1:pos:R:3:forces:R:3 energy=-1.2341041220237852 pbc="F F F"
Ag       0.00000000       0.00000000       0.00000000       0.00000000       0.00000000       1.07344818
Ag       0.00000000       0.00000000       3.47212121       0.00000000       0.00000000      -1.07344818
2
Properties=species:S:1:pos:R:3:forces:R:3 energy=-1.172191089734977 pbc="F F F"
Ag       0.00000000       0.00000000       0.00000000       0.00000000       0.00000000       1.03089869
Ag       0.00000000       0.00000000       3.53090909       0.00000000       0.00000000      -1.03089869
2
Properties=species:S:1:pos:R:3:forces:R:3 energy=-1.113112678645525 pbc="F F F"
Ag       0.00000000       0.00000000       0.00000000       0.00000000       0.00000000       0.97735119
Ag       0.00000000       0.00000000       3.58969697       0.00000000       0.00000000      -0.97735119
2
Properties=species:S:1:pos:R:3:forces:R:3 energy=-1.0574321543485545 pbc="F F F"
Ag       0.00000000       0.00000000       0.00000000       0.00000000       0.00000000       0.91595626
Ag       0.00000000       0.00000000       3.64848485       0.00000000       0.00000000      -0.91595626
2
Properties=species:S:1:pos:R:3:forces:R:3 energy=-1.0054924587580711 pbc="F F F"
Ag       0.00000000       0.00000000       0.00000000       0.00000000       0.00000000       0.85080427
Ag       0.00000000       0.00000000       3.70727273       0.00000000       0.00000000      -0.85080427
2
Properties=species:S:1:pos:R:3:forces:R:3 energy=-0.9573917439748123 pbc="F F F"
Ag       0.00000000       0.00000000       0.00000000       0.00000000       0.00000000       0.78593183
Ag       0.00000000       0.00000000       3.76606061       0.00000000       0.00000000      -0.78593183
2
Properties=species:S:1:pos:R:3:forces:R:3 energy=-0.9130170728535649 pbc="F F F"
Ag       0.00000000       0.00000000       0.00000000       0.00000000       0.00000000       0.72451997
Ag       0.00000000       0.00000000       3.82484848       0.00000000       0.00000000      -0.72451997
2
Properties=species:S:1:pos:R:3:forces:R:3 energy=-0.8720992724596044 pbc="F F F"
Ag       0.00000000       0.00000000       0.00000000       0.00000000       0.00000000       0.66850477
Ag       0.00000000       0.00000000       3.88363636       0.00000000       0.00000000      -0.66850477
2
Properties=species:S:1:pos:R:3:forces:R:3 energy=-0.8342962341077361 pbc="F F F"
Ag       0.00000000       0.00000000       0.00000000       0.00000000       0.00000000       0.61860573
Ag       0.00000000       0.00000000       3.94242424       0.00000000       0.00000000      -0.61860573
2
Properties=species:S:1:pos:R:3:forces:R:3 energy=-0.7992514567148932 pbc="F F F"
Ag       0.00000000       0.00000000       0.00000000       0.00000000       0.00000000       0.57457411
Ag       0.00000000       0.00000000       4.00121212       0.00000000       0.00000000      -0.57457411
2
Properties=species:S:1:pos:R:3:forces:R:3 energy=-0.7666428532527991 pbc="F F F"
Ag       0.00000000       0.00000000       0.00000000       0.00000000       0.00000000       0.53552717
Ag       0.00000000       0.00000000       4.06000000       0.00000000       0.00000000      -0.53552717
2
Properties=species:S:1:pos:R:3:forces:R:3 energy=-0.7362122924770214 pbc="F F F"
Ag       0.00000000       0.00000000       0.00000000       0.00000000       0.00000000       0.50027561
Ag       0.00000000       0.00000000       4.11878788       0.00000000       0.00000000      -0.50027561
2
Properties=species:S:1:pos:R:3:forces:R:3 energy=-0.7077725433280929 pbc="F F F"
Ag       0.00000000       0.00000000       0.00000000       0.00000000       0.00000000       0.46756956
Ag       0.00000000       0.00000000       4.17757576       0.00000000       0.00000000      -0.46756956
2
Properties=species:S:1:pos:R:3:forces:R:3 energy=-0.6812078222926754 pbc="F F F"
Ag       0.00000000       0.00000000       0.00000000       0.00000000       0.00000000       0.43634182
Ag       0.00000000       0.00000000       4.23636364       0.00000000       0.00000000      -0.43634182
2
Properties=species:S:1:pos:R:3:forces:R:3 energy=-0.6564540947764083 pbc="F F F"
Ag       0.00000000       0.00000000       0.00000000       0.00000000       0.00000000       0.40587828
Ag       0.00000000       0.00000000       4.29515152       0.00000000       0.00000000      -0.40587828
2
Properties=species:S:1:pos:R:3:forces:R:3 energy=-0.633476796222027 pbc="F F F"
Ag       0.00000000       0.00000000       0.00000000       0.00000000       0.00000000       0.37594965
Ag       0.00000000       0.00000000       4.35393939       0.00000000       0.00000000      -0.37594965
2
Properties=species:S:1:pos:R:3:forces:R:3 energy=-0.6122366915671378 pbc="F F F"
Ag       0.00000000       0.00000000       0.00000000       0.00000000       0.00000000       0.34682503
Ag       0.00000000       0.00000000       4.41272727       0.00000000       0.00000000      -0.34682503
2
Properties=species:S:1:pos:R:3:forces:R:3 energy=-0.5926693934211693 pbc="F F F"
Ag       0.00000000       0.00000000       0.00000000       0.00000000       0.00000000       0.31917119
Ag       0.00000000       0.00000000       4.47151515       0.00000000       0.00000000      -0.31917119
2
Properties=species:S:1:pos:R:3:forces:R:3 energy=-0.5746646648304194 pbc="F F F"
Ag       0.00000000       0.00000000       0.00000000       0.00000000       0.00000000       0.29379877
Ag       0.00000000       0.00000000       4.53030303       0.00000000       0.00000000      -0.29379877
2
Properties=species:S:1:pos:R:3:forces:R:3 energy=-0.5580683361301545 pbc="F F F"
Ag       0.00000000       0.00000000       0.00000000       0.00000000       0.00000000       0.27134979
Ag       0.00000000       0.00000000       4.58909091       0.00000000       0.00000000      -0.27134979
2
Properties=species:S:1:pos:R:3:forces:R:3 energy=-0.5426996608155988 pbc="F F F"
Ag       0.00000000       0.00000000       0.00000000       0.00000000       0.00000000       0.25201067
Ag       0.00000000       0.00000000       4.64787879       0.00000000       0.00000000      -0.25201067
2
Properties=species:S:1:pos:R:3:forces:R:3 energy=-0.5283847727545875 pbc="F F F"
Ag       0.00000000       0.00000000       0.00000000       0.00000000       0.00000000       0.23535240
Ag       0.00000000       0.00000000       4.70666667       0.00000000       0.00000000      -0.23535240
2
Properties=species:S:1:pos:R:3:forces:R:3 energy=-0.5149943525712655 pbc="F F F"
Ag       0.00000000       0.00000000       0.00000000       0.00000000       0.00000000       0.22039643
Ag       0.00000000       0.00000000       4.76545455       0.00000000       0.00000000      -0.22039643
2
Properties=species:S:1:pos:R:3:forces:R:3 energy=-0.5024624785529477 pbc="F F F"
Ag       0.00000000       0.00000000       0.00000000       0.00000000       0.00000000       0.20588535
Ag       0.00000000       0.00000000       4.82424242       0.00000000       0.00000000      -0.20588535
2
Properties=species:S:1:pos:R:3:forces:R:3 energy=-0.4908011105787994 pbc="F F F"
Ag       0.00000000       0.00000000       0.00000000       0.00000000       0.00000000       0.19070196
Ag       0.00000000       0.00000000       4.88303030       0.00000000       0.00000000      -0.19070196
2
Properties=species:S:1:pos:R:3:forces:R:3 energy=-0.48006593319856966 pbc="F F F"
Ag       0.00000000       0.00000000       0.00000000       0.00000000       0.00000000       0.17427626
Ag       0.00000000       0.00000000       4.94181818       0.00000000       0.00000000      -0.17427626
2
Properties=species:S:1:pos:R:3:forces:R:3 energy=-0.47033048334099 pbc="F F F"
Ag       0.00000000       0.00000000       0.00000000       0.00000000       0.00000000       0.15682486
Ag       0.00000000       0.00000000       5.00060606       0.00000000       0.00000000      -0.15682486
2
Properties=species:S:1:pos:R:3:forces:R:3 energy=-0.46162946688056844 pbc="F F F"
Ag       0.00000000       0.00000000       0.00000000       0.00000000       0.00000000       0.13924533
Ag       0.00000000       0.00000000       5.05939394       0.00000000       0.00000000      -0.13924533
2
Properties=species:S:1:pos:R:3:forces:R:3 energy=-0.4539380647384755 pbc="F F F"
Ag       0.00000000       0.00000000       0.00000000       0.00000000       0.00000000       0.12269677
Ag       0.00000000       0.00000000       5.11818182       0.00000000       0.00000000      -0.12269677
2
Properties=species:S:1:pos:R:3:forces:R:3 energy=-0.44716774876208487 pbc="F F F"
Ag       0.00000000       0.00000000       0.00000000       0.00000000       0.00000000       0.10795847
Ag       0.00000000       0.00000000       5.17696970       0.00000000       0.00000000      -0.10795847
2
Properties=species:S:1:pos:R:3:forces:R:3 energy=-0.44121024261037095 pbc="F F F"
Ag       0.00000000       0.00000000       0.00000000       0.00000000       0.00000000       0.09496327
Ag       0.00000000       0.00000000       5.23575758       0.00000000       0.00000000      -0.09496327
2
Properties=species:S:1:pos:R:3:forces:R:3 energy=-0.43598268306771515 pbc="F F F"
Ag       0.00000000       0.00000000       0.00000000       0.00000000       0.00000000       0.08300766
Ag       0.00000000       0.00000000       5.29454545       0.00000000       0.00000000      -0.08300766
2
Properties=species:S:1:pos:R:3:forces:R:3 energy=-0.43142583782424837 pbc="F F F"
Ag       0.00000000       0.00000000       0.00000000       0.00000000       0.00000000       0.07243025
Ag       0.00000000       0.00000000       5.35333333       0.00000000       0.00000000      -0.07243025
2
Properties=species:S:1:pos:R:3:forces:R:3 energy=-0.42737394635468307 pbc="F F F"
Ag       0.00000000       0.00000000       0.00000000       0.00000000       0.00000000       0.06658142
Ag       0.00000000       0.00000000       5.41212121       0.00000000       0.00000000      -0.06658142
2
Properties=species:S:1:pos:R:3:forces:R:3 energy=-0.42346967676150743 pbc="F F F"
Ag       0.00000000       0.00000000       0.00000000       0.00000000       0.00000000       0.06673436
Ag       0.00000000       0.00000000       5.47090909       0.00000000       0.00000000      -0.06673436
2
Properties=species:S:1:pos:R:3:forces:R:3 energy=-0.41959755608063354 pbc="F F F"
Ag       0.00000000       0.00000000       0.00000000       0.00000000       0.00000000       0.06344306
Ag       0.00000000       0.00000000       5.52969697       0.00000000       0.00000000      -0.06344306
2
Properties=species:S:1:pos:R:3:forces:R:3 energy=-0.41619832280207586 pbc="F F F"
Ag       0.00000000       0.00000000       0.00000000       0.00000000       0.00000000       0.05118508
Ag       0.00000000       0.00000000       5.58848485       0.00000000       0.00000000      -0.05118508
2
Properties=species:S:1:pos:R:3:forces:R:3 energy=-0.413576954957975 pbc="F F F"
Ag       0.00000000       0.00000000       0.00000000       0.00000000       0.00000000       0.03910773
Ag       0.00000000       0.00000000       5.64727273       0.00000000       0.00000000      -0.03910773
2
Properties=species:S:1:pos:R:3:forces:R:3 energy=-0.41140210189625087 pbc="F F F"
Ag       0.00000000       0.00000000       0.00000000       0.00000000       0.00000000       0.03661919
Ag       0.00000000       0.00000000       5.70606061       0.00000000       0.00000000      -0.03661919
2
Properties=species:S:1:pos:R:3:forces:R:3 energy=-0.4091703657415904 pbc="F F F"
Ag       0.00000000       0.00000000       0.00000000       0.00000000       0.00000000       0.03866600
Ag       0.00000000       0.00000000       5.76484848       0.00000000       0.00000000      -0.03866600
2
Properties=species:S:1:pos:R:3:forces:R:3 energy=-0.4070321793936775 pbc="F F F"
Ag       0.00000000       0.00000000       0.00000000       0.00000000       0.00000000       0.03239083
Ag       0.00000000       0.00000000       5.82363636       0.00000000       0.00000000      -0.03239083
2
Properties=species:S:1:pos:R:3:forces:R:3 energy=-0.4054847909215104 pbc="F F F"
Ag       0.00000000       0.00000000       0.00000000       0.00000000       0.00000000       0.02027485
Ag       0.00000000       0.00000000       5.88242424       0.00000000       0.00000000      -0.02027485
2
Properties=species:S:1:pos:R:3:forces:R:3 energy=-0.4045927983685394 pbc="F F F"
Ag       0.00000000       0.00000000       0.00000000       0.00000000       0.00000000       0.01082478
Ag       0.00000000       0.00000000       5.94121212       0.00000000       0.00000000      -0.01082478
2
Properties=species:S:1:pos:R:3:forces:R:3 energy=-0.4040955375236633 pbc="F F F"
Ag       0.00000000       0.00000000       0.00000000       0.00000000       0.00000000       0.00717060
Ag       0.00000000       0.00000000       6.00000000       0.00000000       0.00000000      -0.00717060
