2
Properties=species:S:1:pos:R:3:forces:R:3 energy=1262.3192066772656 pbc="F F F"
Al       0.00000000       0.00000000       0.00000000       0.00000000       0.00000000  -17299.95898438
Al       0.00000000       0.00000000       0.18000000       0.00000000       0.00000000   17299.95898438
2
Properties=species:S:1:pos:R:3:forces:R:3 energy=615.2125172241406 pbc="F F F"
Al       0.00000000       0.00000000       0.00000000       0.00000000       0.00000000   -6707.50830078
Al       0.00000000       0.00000000       0.23878788       0.00000000       0.00000000    6707.50830078
2
Properties=species:S:1:pos:R:3:forces:R:3 energy=345.77864881593746 pbc="F F F"
Al       0.00000000       0.00000000       0.00000000       0.00000000       0.00000000   -3035.30444336
Al       0.00000000       0.00000000       0.29757576       0.00000000       0.00000000    3035.30444336
2
Properties=species:S:1:pos:R:3:forces:R:3 energy=217.59880873438252 pbc="F F F"
Al       0.00000000       0.00000000       0.00000000       0.00000000       0.00000000   -1529.31689453
Al       0.00000000       0.00000000       0.35636364       0.00000000       0.00000000    1529.31689453
2
Properties=species:S:1:pos:R:3:forces:R:3 energy=150.52106521678036 pbc="F F F"
Al       0.00000000       0.00000000       0.00000000       0.00000000       0.00000000    -836.13183594
Al       0.00000000       0.00000000       0.41515152       0.00000000       0.00000000     836.13183594
2
Properties=species:S:1:pos:R:3:forces:R:3 energy=112.61682176021336 pbc="F F F"
Al       0.00000000       0.00000000       0.00000000       0.00000000       0.00000000    -491.58190918
Al       0.00000000       0.00000000       0.47393939       0.00000000       0.00000000     491.58190918
2
Properties=species:S:1:pos:R:3:forces:R:3 energy=89.53704884900847 pbc="F F F"
Al       0.00000000       0.00000000       0.00000000       0.00000000       0.00000000    -312.64788818
Al       0.00000000       0.00000000       0.53272727       0.00000000       0.00000000     312.64788818
2
Properties=species:S:1:pos:R:3:forces:R:3 energy=74.21834621461102 pbc="F F F"
Al       0.00000000       0.00000000       0.00000000       0.00000000       0.00000000    -218.59962463
Al       0.00000000       0.00000000       0.59151515       0.00000000       0.00000000     218.59962463
2
Properties=species:S:1:pos:R:3:forces:R:3 energy=62.94678946806892 pbc="F F F"
Al       0.00000000       0.00000000       0.00000000       0.00000000       0.00000000    -170.46580505
Al       0.00000000       0.00000000       0.65030303       0.00000000       0.00000000     170.46580505
2
Properties=species:S:1:pos:R:3:forces:R:3 energy=53.69368064818855 pbc="F F F"
Al       0.00000000       0.00000000       0.00000000       0.00000000       0.00000000    -147.03491211
Al       0.00000000       0.00000000       0.70909091       0.00000000       0.00000000     147.03491211
2
Properties=species:S:1:pos:R:3:forces:R:3 energy=45.45145525464166 pbc="F F F"
Al       0.00000000       0.00000000       0.00000000       0.00000000       0.00000000    -134.30946350
Al       0.00000000       0.00000000       0.76787879       0.00000000       0.00000000     134.30946350
2
Properties=species:S:1:pos:R:3:forces:R:3 energy=37.91433480935287 pbc="F F F"
Al       0.00000000       0.00000000       0.00000000       0.00000000       0.00000000    -121.35971832
Al       0.00000000       0.00000000       0.82666667       0.00000000       0.00000000     121.35971832
2
Properties=species:S:1:pos:R:3:forces:R:3 energy=31.280630196051195 pbc="F F F"
Al       0.00000000       0.00000000       0.00000000       0.00000000       0.00000000    -103.41861725
Al       0.00000000       0.00000000       0.88545455       0.00000000       0.00000000     103.41861725
2
Properties=species:S:1:pos:R:3:forces:R:3 energy=25.8339012772874 pbc="F F F"
Al       0.00000000       0.00000000       0.00000000       0.00000000       0.00000000     -82.00747681
Al       0.00000000       0.00000000       0.94424242       0.00000000       0.00000000      82.00747681
2
Properties=species:S:1:pos:R:3:forces:R:3 energy=21.53438943416695 pbc="F F F"
Al       0.00000000       0.00000000       0.00000000       0.00000000       0.00000000     -65.33300781
Al       0.00000000       0.00000000       1.00303030       0.00000000       0.00000000      65.33300781
2
Properties=species:S:1:pos:R:3:forces:R:3 energy=18.022187598784672 pbc="F F F"
Al       0.00000000       0.00000000       0.00000000       0.00000000       0.00000000     -55.64281845
Al       0.00000000       0.00000000       1.06181818       0.00000000       0.00000000      55.64281845
2
Properties=species:S:1:pos:R:3:forces:R:3 energy=14.848887726672887 pbc="F F F"
Al       0.00000000       0.00000000       0.00000000       0.00000000       0.00000000     -52.36418152
Al       0.00000000       0.00000000       1.12060606       0.00000000       0.00000000      52.36418152
2
Properties=species:S:1:pos:R:3:forces:R:3 energy=11.978073890772505 pbc="F F F"
Al       0.00000000       0.00000000       0.00000000       0.00000000       0.00000000     -44.18865585
Al       0.00000000       0.00000000       1.17939394       0.00000000       0.00000000      44.18865585
2
Properties=species:S:1:pos:R:3:forces:R:3 energy=9.728366905894752 pbc="F F F"
Al       0.00000000       0.00000000       0.00000000       0.00000000       0.00000000     -32.10917282
Al       0.00000000       0.00000000       1.23818182       0.00000000       0.00000000      32.10917282
2
Properties=species:S:1:pos:R:3:forces:R:3 energy=8.182494362681716 pbc="F F F"
Al       0.00000000       0.00000000       0.00000000       0.00000000       0.00000000     -21.15537262
Al       0.00000000       0.00000000       1.29696970       0.00000000       0.00000000      21.15537262
2
Properties=species:S:1:pos:R:3:forces:R:3 energy=7.125985581524791 pbc="F F F"
Al       0.00000000       0.00000000       0.00000000       0.00000000       0.00000000     -15.78641415
Al       0.00000000       0.00000000       1.35575758       0.00000000       0.00000000      15.78641415
2
Properties=species:S:1:pos:R:3:forces:R:3 energy=6.24093917917905 pbc="F F F"
Al       0.00000000       0.00000000       0.00000000       0.00000000       0.00000000     -14.73341846
Al       0.00000000       0.00000000       1.41454545       0.00000000       0.00000000      14.73341846
2
Properties=species:S:1:pos:R:3:forces:R:3 energy=5.374398440149171 pbc="F F F"
Al       0.00000000       0.00000000       0.00000000       0.00000000       0.00000000     -14.74555779
Al       0.00000000       0.00000000       1.47333333       0.00000000       0.00000000      14.74555779
2
Properties=species:S:1:pos:R:3:forces:R:3 energy=4.514703556845249 pbc="F F F"
Al       0.00000000       0.00000000       0.00000000       0.00000000       0.00000000     -14.42187786
Al       0.00000000       0.00000000       1.53212121       0.00000000       0.00000000      14.42187786
2
Properties=species:S:1:pos:R:3:forces:R:3 energy=3.6858652658950812 pbc="F F F"
Al       0.00000000       0.00000000       0.00000000       0.00000000       0.00000000     -13.74071598
Al       0.00000000       0.00000000       1.59090909       0.00000000       0.00000000      13.74071598
2
Properties=species:S:1:pos:R:3:forces:R:3 energy=2.9006119422895953 pbc="F F F"
Al       0.00000000       0.00000000       0.00000000       0.00000000       0.00000000     -12.97798538
Al       0.00000000       0.00000000       1.64969697       0.00000000       0.00000000      12.97798538
2
Properties=species:S:1:pos:R:3:forces:R:3 energy=2.1587072355253336 pbc="F F F"
Al       0.00000000       0.00000000       0.00000000       0.00000000       0.00000000     -12.27367592
Al       0.00000000       0.00000000       1.70848485       0.00000000       0.00000000      12.27367592
2
Properties=species:S:1:pos:R:3:forces:R:3 energy=1.4568406892963461 pbc="F F F"
Al       0.00000000       0.00000000       0.00000000       0.00000000       0.00000000     -11.60160828
Al       0.00000000       0.00000000       1.76727273       0.00000000       0.00000000      11.60160828
2
Properties=species:S:1:pos:R:3:forces:R:3 energy=0.796158430733693 pbc="F F F"
Al       0.00000000       0.00000000       0.00000000       0.00000000       0.00000000     -10.85245514
Al       0.00000000       0.00000000       1.82606061       0.00000000       0.00000000      10.85245514
2
Properties=species:S:1:pos:R:3:forces:R:3 energy=0.1844167528694137 pbc="F F F"
Al       0.00000000       0.00000000       0.00000000       0.00000000       0.00000000      -9.92397118
Al       0.00000000       0.00000000       1.88484848       0.00000000       0.00000000       9.92397118
2
Properties=species:S:1:pos:R:3:forces:R:3 energy=-0.366385188492828 pbc="F F F"
Al       0.00000000       0.00000000       0.00000000       0.00000000       0.00000000      -8.78015900
Al       0.00000000       0.00000000       1.94363636       0.00000000       0.00000000       8.78015900
2
Properties=species:S:1:pos:R:3:forces:R:3 energy=-0.8445882325306097 pbc="F F F"
Al       0.00000000       0.00000000       0.00000000       0.00000000       0.00000000      -7.46824646
Al       0.00000000       0.00000000       2.00242424       0.00000000       0.00000000       7.46824646
2
Properties=species:S:1:pos:R:3:forces:R:3 energy=-1.2431976723492253 pbc="F F F"
Al       0.00000000       0.00000000       0.00000000       0.00000000       0.00000000      -6.09175491
Al       0.00000000       0.00000000       2.06121212       0.00000000       0.00000000       6.09175491
2
Properties=species:S:1:pos:R:3:forces:R:3 energy=-1.561775133625333 pbc="F F F"
Al       0.00000000       0.00000000       0.00000000       0.00000000       0.00000000      -4.76242828
Al       0.00000000       0.00000000       2.12000000       0.00000000       0.00000000       4.76242828
2
Properties=species:S:1:pos:R:3:forces:R:3 energy=-1.805740602092793 pbc="F F F"
Al       0.00000000       0.00000000       0.00000000       0.00000000       0.00000000      -3.56423163
Al       0.00000000       0.00000000       2.17878788       0.00000000       0.00000000       3.56423163
2
Properties=species:S:1:pos:R:3:forces:R:3 energy=-1.984326256860127 pbc="F F F"
Al       0.00000000       0.00000000       0.00000000       0.00000000       0.00000000      -2.54279089
Al       0.00000000       0.00000000       2.23757576       0.00000000       0.00000000       2.54279089
2
Properties=species:S:1:pos:R:3:forces:R:3 energy=-2.1084592535755076 pbc="F F F"
Al       0.00000000       0.00000000       0.00000000       0.00000000       0.00000000      -1.71195507
Al       0.00000000       0.00000000       2.29636364       0.00000000       0.00000000       1.71195507
2
Properties=species:S:1:pos:R:3:forces:R:3 energy=-2.189201426882003 pbc="F F F"
Al       0.00000000       0.00000000       0.00000000       0.00000000       0.00000000      -1.06393230
Al       0.00000000       0.00000000       2.35515152       0.00000000       0.00000000       1.06393230
2
Properties=species:S:1:pos:R:3:forces:R:3 energy=-2.2367033809572314 pbc="F F F"
Al       0.00000000       0.00000000       0.00000000       0.00000000       0.00000000      -0.57637119
Al       0.00000000       0.00000000       2.41393939       0.00000000       0.00000000       0.57637119
2
Properties=species:S:1:pos:R:3:forces:R:3 energy=-2.259490793832206 pbc="F F F"
Al       0.00000000       0.00000000       0.00000000       0.00000000       0.00000000      -0.21732181
Al       0.00000000       0.00000000       2.47272727       0.00000000       0.00000000       0.21732181
2
Properties=species:S:1:pos:R:3:forces:R:3 energy=-2.264077893021244 pbc="F F F"
Al       0.00000000       0.00000000       0.00000000       0.00000000       0.00000000       0.04854320
Al       0.00000000       0.00000000       2.53151515       0.00000000       0.00000000      -0.04854320
2
Properties=species:S:1:pos:R:3:forces:R:3 energy=-2.254995525557857 pbc="F F F"
Al       0.00000000       0.00000000       0.00000000       0.00000000       0.00000000       0.25216007
Al       0.00000000       0.00000000       2.59030303       0.00000000       0.00000000      -0.25216007
2
Properties=species:S:1:pos:R:3:forces:R:3 energy=-2.2352277884565037 pbc="F F F"
Al       0.00000000       0.00000000       0.00000000       0.00000000       0.00000000       0.41472703
Al       0.00000000       0.00000000       2.64909091       0.00000000       0.00000000      -0.41472703
2
Properties=species:S:1:pos:R:3:forces:R:3 energy=-2.2068097041256642 pbc="F F F"
Al       0.00000000       0.00000000       0.00000000       0.00000000       0.00000000       0.54773951
Al       0.00000000       0.00000000       2.70787879       0.00000000       0.00000000      -0.54773951
2
Properties=species:S:1:pos:R:3:forces:R:3 energy=-2.171289692160832 pbc="F F F"
Al       0.00000000       0.00000000       0.00000000       0.00000000       0.00000000       0.65705371
Al       0.00000000       0.00000000       2.76666667       0.00000000       0.00000000      -0.65705371
2
Properties=species:S:1:pos:R:3:forces:R:3 energy=-2.129944584027904 pbc="F F F"
Al       0.00000000       0.00000000       0.00000000       0.00000000       0.00000000       0.74649841
Al       0.00000000       0.00000000       2.82545455       0.00000000       0.00000000      -0.74649841
2
Properties=species:S:1:pos:R:3:forces:R:3 energy=-2.083850466083833 pbc="F F F"
Al       0.00000000       0.00000000       0.00000000       0.00000000       0.00000000       0.81905854
Al       0.00000000       0.00000000       2.88424242       0.00000000       0.00000000      -0.81905854
2
Properties=species:S:1:pos:R:3:forces:R:3 energy=-2.0339174583936135 pbc="F F F"
Al       0.00000000       0.00000000       0.00000000       0.00000000       0.00000000       0.87765127
Al       0.00000000       0.00000000       2.94303030       0.00000000       0.00000000      -0.87765127
2
Properties=species:S:1:pos:R:3:forces:R:3 energy=-1.9808555412229165 pbc="F F F"
Al       0.00000000       0.00000000       0.00000000       0.00000000       0.00000000       0.92625272
Al       0.00000000       0.00000000       3.00181818       0.00000000       0.00000000      -0.92625272
2
Properties=species:S:1:pos:R:3:forces:R:3 energy=-1.9251487773561762 pbc="F F F"
Al       0.00000000       0.00000000       0.00000000       0.00000000       0.00000000       0.96778357
Al       0.00000000       0.00000000       3.06060606       0.00000000       0.00000000      -0.96778357
2
Properties=species:S:1:pos:R:3:forces:R:3 energy=-1.8672278505740139 pbc="F F F"
Al       0.00000000       0.00000000       0.00000000       0.00000000       0.00000000       1.00112379
Al       0.00000000       0.00000000       3.11939394       0.00000000       0.00000000      -1.00112379
2
Properties=species:S:1:pos:R:3:forces:R:3 energy=-1.8076416660970804 pbc="F F F"
Al       0.00000000       0.00000000       0.00000000       0.00000000       0.00000000       1.02430832
Al       0.00000000       0.00000000       3.17818182       0.00000000       0.00000000      -1.02430832
2
Properties=species:S:1:pos:R:3:forces:R:3 energy=-1.7469759591680278 pbc="F F F"
Al       0.00000000       0.00000000       0.00000000       0.00000000       0.00000000       1.03827167
Al       0.00000000       0.00000000       3.23696970       0.00000000       0.00000000      -1.03827167
2
Properties=species:S:1:pos:R:3:forces:R:3 energy=-1.685692217122205 pbc="F F F"
Al       0.00000000       0.00000000       0.00000000       0.00000000       0.00000000       1.04575896
Al       0.00000000       0.00000000       3.29575758       0.00000000       0.00000000      -1.04575896
2
Properties=species:S:1:pos:R:3:forces:R:3 energy=-1.6241041185091802 pbc="F F F"
Al       0.00000000       0.00000000       0.00000000       0.00000000       0.00000000       1.04886663
Al       0.00000000       0.00000000       3.35454545       0.00000000       0.00000000      -1.04886663
2
Properties=species:S:1:pos:R:3:forces:R:3 energy=-1.562448481992166 pbc="F F F"
Al       0.00000000       0.00000000       0.00000000       0.00000000       0.00000000       1.04797709
Al       0.00000000       0.00000000       3.41333333       0.00000000       0.00000000      -1.04797709
2
Properties=species:S:1:pos:R:3:forces:R:3 energy=-1.500985013726073 pbc="F F F"
Al       0.00000000       0.00000000       0.00000000       0.00000000       0.00000000       1.04209685
Al       0.00000000       0.00000000       3.47212121       0.00000000       0.00000000      -1.04209685
2
Properties=species:S:1:pos:R:3:forces:R:3 energy=-1.4400500651488581 pbc="F F F"
Al       0.00000000       0.00000000       0.00000000       0.00000000       0.00000000       1.02976990
Al       0.00000000       0.00000000       3.53090909       0.00000000       0.00000000      -1.02976990
2
Properties=species:S:1:pos:R:3:forces:R:3 energy=-1.3800557735589583 pbc="F F F"
Al       0.00000000       0.00000000       0.00000000       0.00000000       0.00000000       1.00998175
Al       0.00000000       0.00000000       3.58969697       0.00000000       0.00000000      -1.00998175
2
Properties=species:S:1:pos:R:3:forces:R:3 energy=-1.3214485674756937 pbc="F F F"
Al       0.00000000       0.00000000       0.00000000       0.00000000       0.00000000       0.98266196
Al       0.00000000       0.00000000       3.64848485       0.00000000       0.00000000      -0.98266196
2
Properties=species:S:1:pos:R:3:forces:R:3 energy=-1.2646493999560147 pbc="F F F"
Al       0.00000000       0.00000000       0.00000000       0.00000000       0.00000000       0.94870836
Al       0.00000000       0.00000000       3.70727273       0.00000000       0.00000000      -0.94870836
2
Properties=species:S:1:pos:R:3:forces:R:3 energy=-1.2100022515255502 pbc="F F F"
Al       0.00000000       0.00000000       0.00000000       0.00000000       0.00000000       0.90972549
Al       0.00000000       0.00000000       3.76606061       0.00000000       0.00000000      -0.90972549
2
Properties=species:S:1:pos:R:3:forces:R:3 energy=-1.1577478552897746 pbc="F F F"
Al       0.00000000       0.00000000       0.00000000       0.00000000       0.00000000       0.86765510
Al       0.00000000       0.00000000       3.82484848       0.00000000       0.00000000      -0.86765510
2
Properties=species:S:1:pos:R:3:forces:R:3 energy=-1.1080088332907945 pbc="F F F"
Al       0.00000000       0.00000000       0.00000000       0.00000000       0.00000000       0.82443637
Al       0.00000000       0.00000000       3.88363636       0.00000000       0.00000000      -0.82443637
2
Properties=species:S:1:pos:R:3:forces:R:3 energy=-1.0608025354326578 pbc="F F F"
Al       0.00000000       0.00000000       0.00000000       0.00000000       0.00000000       0.78179145
Al       0.00000000       0.00000000       3.94242424       0.00000000       0.00000000      -0.78179145
2
Properties=species:S:1:pos:R:3:forces:R:3 energy=-1.01605268631377 pbc="F F F"
Al       0.00000000       0.00000000       0.00000000       0.00000000       0.00000000       0.74103522
Al       0.00000000       0.00000000       4.00121212       0.00000000       0.00000000      -0.74103522
2
Properties=species:S:1:pos:R:3:forces:R:3 energy=-0.973622253312717 pbc="F F F"
Al       0.00000000       0.00000000       0.00000000       0.00000000       0.00000000       0.70294929
Al       0.00000000       0.00000000       4.06000000       0.00000000       0.00000000      -0.70294929
2
Properties=species:S:1:pos:R:3:forces:R:3 energy=-0.9333477693601903 pbc="F F F"
Al       0.00000000       0.00000000       0.00000000       0.00000000       0.00000000       0.66767263
Al       0.00000000       0.00000000       4.11878788       0.00000000       0.00000000      -0.66767263
2
Properties=species:S:1:pos:R:3:forces:R:3 energy=-0.8950748192934066 pbc="F F F"
Al       0.00000000       0.00000000       0.00000000       0.00000000       0.00000000       0.63468838
Al       0.00000000       0.00000000       4.17757576       0.00000000       0.00000000      -0.63468838
2
Properties=species:S:1:pos:R:3:forces:R:3 energy=-0.8586979116116649 pbc="F F F"
Al       0.00000000       0.00000000       0.00000000       0.00000000       0.00000000       0.60297924
Al       0.00000000       0.00000000       4.23636364       0.00000000       0.00000000      -0.60297924
2
Properties=species:S:1:pos:R:3:forces:R:3 energy=-0.8241770036341077 pbc="F F F"
Al       0.00000000       0.00000000       0.00000000       0.00000000       0.00000000       0.57134771
Al       0.00000000       0.00000000       4.29515152       0.00000000       0.00000000      -0.57134771
2
Properties=species:S:1:pos:R:3:forces:R:3 energy=-0.7915393702505122 pbc="F F F"
Al       0.00000000       0.00000000       0.00000000       0.00000000       0.00000000       0.53883111
Al       0.00000000       0.00000000       4.35393939       0.00000000       0.00000000      -0.53883111
2
Properties=species:S:1:pos:R:3:forces:R:3 energy=-0.7608506527349579 pbc="F F F"
Al       0.00000000       0.00000000       0.00000000       0.00000000       0.00000000       0.50498915
Al       0.00000000       0.00000000       4.41272727       0.00000000       0.00000000      -0.50498915
2
Properties=species:S:1:pos:R:3:forces:R:3 energy=-0.7321880023936101 pbc="F F F"
Al       0.00000000       0.00000000       0.00000000       0.00000000       0.00000000       0.46996263
Al       0.00000000       0.00000000       4.47151515       0.00000000       0.00000000      -0.46996263
2
Properties=species:S:1:pos:R:3:forces:R:3 energy=-0.7056066331034769 pbc="F F F"
Al       0.00000000       0.00000000       0.00000000       0.00000000       0.00000000       0.43428284
Al       0.00000000       0.00000000       4.53030303       0.00000000       0.00000000      -0.43428284
2
Properties=species:S:1:pos:R:3:forces:R:3 energy=-0.6811285998000803 pbc="F F F"
Al       0.00000000       0.00000000       0.00000000       0.00000000       0.00000000       0.39851677
Al       0.00000000       0.00000000       4.58909091       0.00000000       0.00000000      -0.39851677
2
Properties=species:S:1:pos:R:3:forces:R:3 energy=-0.6587466468528134 pbc="F F F"
Al       0.00000000       0.00000000       0.00000000       0.00000000       0.00000000       0.36298254
Al       0.00000000       0.00000000       4.64787879       0.00000000       0.00000000      -0.36298254
2
Properties=species:S:1:pos:R:3:forces:R:3 energy=-0.6384462721188916 pbc="F F F"
Al       0.00000000       0.00000000       0.00000000       0.00000000       0.00000000       0.32764792
Al       0.00000000       0.00000000       4.70666667       0.00000000       0.00000000      -0.32764792
2
Properties=species:S:1:pos:R:3:forces:R:3 energy=-0.6202230413847132 pbc="F F F"
Al       0.00000000       0.00000000       0.00000000       0.00000000       0.00000000       0.29232699
Al       0.00000000       0.00000000       4.76545455       0.00000000       0.00000000      -0.29232699
2
Properties=species:S:1:pos:R:3:forces:R:3 energy=-0.6040741797751717 pbc="F F F"
Al       0.00000000       0.00000000       0.00000000       0.00000000       0.00000000       0.25708568
Al       0.00000000       0.00000000       4.82424242       0.00000000       0.00000000      -0.25708568
2
Properties=species:S:1:pos:R:3:forces:R:3 energy=-0.5899788990530578 pbc="F F F"
Al       0.00000000       0.00000000       0.00000000       0.00000000       0.00000000       0.22277245
Al       0.00000000       0.00000000       4.88303030       0.00000000       0.00000000      -0.22277245
2
Properties=species:S:1:pos:R:3:forces:R:3 energy=-0.5778272385926877 pbc="F F F"
Al       0.00000000       0.00000000       0.00000000       0.00000000       0.00000000       0.19130069
Al       0.00000000       0.00000000       4.94181818       0.00000000       0.00000000      -0.19130069
2
Properties=species:S:1:pos:R:3:forces:R:3 energy=-0.5673746862383615 pbc="F F F"
Al       0.00000000       0.00000000       0.00000000       0.00000000       0.00000000       0.16550609
Al       0.00000000       0.00000000       5.00060606       0.00000000       0.00000000      -0.16550609
2
Properties=species:S:1:pos:R:3:forces:R:3 energy=-0.5582009720719314 pbc="F F F"
Al       0.00000000       0.00000000       0.00000000       0.00000000       0.00000000       0.14814842
Al       0.00000000       0.00000000       5.05939394       0.00000000       0.00000000      -0.14814842
2
Properties=species:S:1:pos:R:3:forces:R:3 energy=-0.5497682086999935 pbc="F F F"
Al       0.00000000       0.00000000       0.00000000       0.00000000       0.00000000       0.14024973
Al       0.00000000       0.00000000       5.11818182       0.00000000       0.00000000      -0.14024973
2
Properties=species:S:1:pos:R:3:forces:R:3 energy=-0.541574147050936 pbc="F F F"
Al       0.00000000       0.00000000       0.00000000       0.00000000       0.00000000       0.13919361
Al       0.00000000       0.00000000       5.17696970       0.00000000       0.00000000      -0.13919361
2
Properties=species:S:1:pos:R:3:forces:R:3 energy=-0.5334053790738305 pbc="F F F"
Al       0.00000000       0.00000000       0.00000000       0.00000000       0.00000000       0.13792117
Al       0.00000000       0.00000000       5.23575758       0.00000000       0.00000000      -0.13792117
2
Properties=species:S:1:pos:R:3:forces:R:3 energy=-0.5255352800119995 pbc="F F F"
Al       0.00000000       0.00000000       0.00000000       0.00000000       0.00000000       0.12787919
Al       0.00000000       0.00000000       5.29454545       0.00000000       0.00000000      -0.12787919
2
Properties=species:S:1:pos:R:3:forces:R:3 energy=-0.5185476441788102 pbc="F F F"
Al       0.00000000       0.00000000       0.00000000       0.00000000       0.00000000       0.10961951
Al       0.00000000       0.00000000       5.35333333       0.00000000       0.00000000      -0.10961951
2
Properties=species:S:1:pos:R:3:forces:R:3 energy=-0.5123705205923542 pbc="F F F"
Al       0.00000000       0.00000000       0.00000000       0.00000000       0.00000000       0.10573125
Al       0.00000000       0.00000000       5.41212121       0.00000000       0.00000000      -0.10573125
2
Properties=species:S:1:pos:R:3:forces:R:3 energy=-0.5053890326840094 pbc="F F F"
Al       0.00000000       0.00000000       0.00000000       0.00000000       0.00000000       0.13622235
Al       0.00000000       0.00000000       5.47090909       0.00000000       0.00000000      -0.13622235
2
Properties=species:S:1:pos:R:3:forces:R:3 energy=-0.4964320866400016 pbc="F F F"
Al       0.00000000       0.00000000       0.00000000       0.00000000       0.00000000       0.16277622
Al       0.00000000       0.00000000       5.52969697       0.00000000       0.00000000      -0.16277622
2
Properties=species:S:1:pos:R:3:forces:R:3 energy=-0.487069963022927 pbc="F F F"
Al       0.00000000       0.00000000       0.00000000       0.00000000       0.00000000       0.15049748
Al       0.00000000       0.00000000       5.58848485       0.00000000       0.00000000      -0.15049748
2
Properties=species:S:1:pos:R:3:forces:R:3 energy=-0.4788810817211869 pbc="F F F"
Al       0.00000000       0.00000000       0.00000000       0.00000000       0.00000000       0.13121730
Al       0.00000000       0.00000000       5.64727273       0.00000000       0.00000000      -0.13121730
2
Properties=species:S:1:pos:R:3:forces:R:3 energy=-0.4709832799326345 pbc="F F F"
Al       0.00000000       0.00000000       0.00000000       0.00000000       0.00000000       0.14336026
Al       0.00000000       0.00000000       5.70606061       0.00000000       0.00000000      -0.14336026
2
Properties=species:S:1:pos:R:3:forces:R:3 energy=-0.46179044549336057 pbc="F F F"
Al       0.00000000       0.00000000       0.00000000       0.00000000       0.00000000       0.16438645
Al       0.00000000       0.00000000       5.76484848       0.00000000       0.00000000      -0.16438645
2
Properties=species:S:1:pos:R:3:forces:R:3 energy=-0.4527037832194099 pbc="F F F"
Al       0.00000000       0.00000000       0.00000000       0.00000000       0.00000000       0.13532704
Al       0.00000000       0.00000000       5.82363636       0.00000000       0.00000000      -0.13532704
2
Properties=species:S:1:pos:R:3:forces:R:3 energy=-0.4465588269745368 pbc="F F F"
Al       0.00000000       0.00000000       0.00000000       0.00000000       0.00000000       0.07382789
Al       0.00000000       0.00000000       5.88242424       0.00000000       0.00000000      -0.07382789
2
Properties=species:S:1:pos:R:3:forces:R:3 energy=-0.4437312797016479 pbc="F F F"
Al       0.00000000       0.00000000       0.00000000       0.00000000       0.00000000       0.02637892
Al       0.00000000       0.00000000       5.94121212       0.00000000       0.00000000      -0.02637892
2
Properties=species:S:1:pos:R:3:forces:R:3 energy=-0.4428510456809782 pbc="F F F"
Al       0.00000000       0.00000000       0.00000000       0.00000000       0.00000000       0.00916749
Al       0.00000000       0.00000000       6.00000000       0.00000000       0.00000000      -0.00916749
