2
Properties=species:S:1:pos:R:3:forces:R:3 energy=16494.884940863234 pbc="F F F"
Au       0.00000000       0.00000000       0.00000000       0.00000000       0.00000000 -285773.15625000
Au       0.00000000       0.00000000       0.18000000       0.00000000       0.00000000  285773.15625000
2
Properties=species:S:1:pos:R:3:forces:R:3 energy=6541.859550238235 pbc="F F F"
Au       0.00000000       0.00000000       0.00000000       0.00000000       0.00000000  -93716.06250000
Au       0.00000000       0.00000000       0.23878788       0.00000000       0.00000000   93716.06250000
2
Properties=species:S:1:pos:R:3:forces:R:3 energy=3025.210136175735 pbc="F F F"
Au       0.00000000       0.00000000       0.00000000       0.00000000       0.00000000  -36154.02734375
Au       0.00000000       0.00000000       0.29757576       0.00000000       0.00000000   36154.02734375
2
Properties=species:S:1:pos:R:3:forces:R:3 energy=1603.501029736758 pbc="F F F"
Au       0.00000000       0.00000000       0.00000000       0.00000000       0.00000000  -15455.40332031
Au       0.00000000       0.00000000       0.35636364       0.00000000       0.00000000   15455.40332031
2
Properties=species:S:1:pos:R:3:forces:R:3 energy=974.0426557196562 pbc="F F F"
Au       0.00000000       0.00000000       0.00000000       0.00000000       0.00000000   -7147.33886719
Au       0.00000000       0.00000000       0.41515152       0.00000000       0.00000000    7147.33886719
2
Properties=species:S:1:pos:R:3:forces:R:3 energy=673.2644574901399 pbc="F F F"
Au       0.00000000       0.00000000       0.00000000       0.00000000       0.00000000   -3565.16699219
Au       0.00000000       0.00000000       0.47393939       0.00000000       0.00000000    3565.16699219
2
Properties=species:S:1:pos:R:3:forces:R:3 energy=517.2239301717325 pbc="F F F"
Au       0.00000000       0.00000000       0.00000000       0.00000000       0.00000000   -1952.92785645
Au       0.00000000       0.00000000       0.53272727       0.00000000       0.00000000    1952.92785645
2
Properties=species:S:1:pos:R:3:forces:R:3 energy=426.6106794804923 pbc="F F F"
Au       0.00000000       0.00000000       0.00000000       0.00000000       0.00000000   -1228.88647461
Au       0.00000000       0.00000000       0.59151515       0.00000000       0.00000000    1228.88647461
2
Properties=species:S:1:pos:R:3:forces:R:3 energy=364.3623885377272 pbc="F F F"
Au       0.00000000       0.00000000       0.00000000       0.00000000       0.00000000    -939.41387939
Au       0.00000000       0.00000000       0.65030303       0.00000000       0.00000000     939.41387939
2
Properties=species:S:1:pos:R:3:forces:R:3 energy=311.9367294720813 pbc="F F F"
Au       0.00000000       0.00000000       0.00000000       0.00000000       0.00000000    -866.66101074
Au       0.00000000       0.00000000       0.70909091       0.00000000       0.00000000     866.66101074
2
Properties=species:S:1:pos:R:3:forces:R:3 energy=258.8329393662762 pbc="F F F"
Au       0.00000000       0.00000000       0.00000000       0.00000000       0.00000000    -922.46655273
Au       0.00000000       0.00000000       0.76787879       0.00000000       0.00000000     922.46655273
2
Properties=species:S:1:pos:R:3:forces:R:3 energy=208.0712513872801 pbc="F F F"
Au       0.00000000       0.00000000       0.00000000       0.00000000       0.00000000    -781.15661621
Au       0.00000000       0.00000000       0.82666667       0.00000000       0.00000000     781.15661621
2
Properties=species:S:1:pos:R:3:forces:R:3 energy=167.19472587584124 pbc="F F F"
Au       0.00000000       0.00000000       0.00000000       0.00000000       0.00000000    -626.55224609
Au       0.00000000       0.00000000       0.88545455       0.00000000       0.00000000     626.55224609
2
Properties=species:S:1:pos:R:3:forces:R:3 energy=133.24475995836437 pbc="F F F"
Au       0.00000000       0.00000000       0.00000000       0.00000000       0.00000000    -524.30914307
Au       0.00000000       0.00000000       0.94424242       0.00000000       0.00000000     524.30914307
2
Properties=species:S:1:pos:R:3:forces:R:3 energy=106.55597130028075 pbc="F F F"
Au       0.00000000       0.00000000       0.00000000       0.00000000       0.00000000    -378.11914062
Au       0.00000000       0.00000000       1.00303030       0.00000000       0.00000000     378.11914062
2
Properties=species:S:1:pos:R:3:forces:R:3 energy=88.61893001429927 pbc="F F F"
Au       0.00000000       0.00000000       0.00000000       0.00000000       0.00000000    -238.78562927
Au       0.00000000       0.00000000       1.06181818       0.00000000       0.00000000     238.78562927
2
Properties=species:S:1:pos:R:3:forces:R:3 energy=77.60998963420532 pbc="F F F"
Au       0.00000000       0.00000000       0.00000000       0.00000000       0.00000000    -143.96197510
Au       0.00000000       0.00000000       1.12060606       0.00000000       0.00000000     143.96197510
2
Properties=species:S:1:pos:R:3:forces:R:3 energy=71.04229567330053 pbc="F F F"
Au       0.00000000       0.00000000       0.00000000       0.00000000       0.00000000     -86.27988434
Au       0.00000000       0.00000000       1.17939394       0.00000000       0.00000000      86.27988434
2
Properties=species:S:1:pos:R:3:forces:R:3 energy=65.7594990539941 pbc="F F F"
Au       0.00000000       0.00000000       0.00000000       0.00000000       0.00000000    -105.82450104
Au       0.00000000       0.00000000       1.23818182       0.00000000       0.00000000     105.82450104
2
Properties=species:S:1:pos:R:3:forces:R:3 energy=58.162516937214654 pbc="F F F"
Au       0.00000000       0.00000000       0.00000000       0.00000000       0.00000000    -151.13166809
Au       0.00000000       0.00000000       1.29696970       0.00000000       0.00000000     151.13166809
2
Properties=species:S:1:pos:R:3:forces:R:3 energy=48.3006734853196 pbc="F F F"
Au       0.00000000       0.00000000       0.00000000       0.00000000       0.00000000    -179.12516785
Au       0.00000000       0.00000000       1.35575758       0.00000000       0.00000000     179.12516785
2
Properties=species:S:1:pos:R:3:forces:R:3 energy=38.26431995510074 pbc="F F F"
Au       0.00000000       0.00000000       0.00000000       0.00000000       0.00000000    -153.37692261
Au       0.00000000       0.00000000       1.41454545       0.00000000       0.00000000     153.37692261
2
Properties=species:S:1:pos:R:3:forces:R:3 energy=30.210316875518604 pbc="F F F"
Au       0.00000000       0.00000000       0.00000000       0.00000000       0.00000000    -126.82112885
Au       0.00000000       0.00000000       1.47333333       0.00000000       0.00000000     126.82112885
2
Properties=species:S:1:pos:R:3:forces:R:3 energy=23.25191327755488 pbc="F F F"
Au       0.00000000       0.00000000       0.00000000       0.00000000       0.00000000    -104.68950653
Au       0.00000000       0.00000000       1.53212121       0.00000000       0.00000000     104.68950653
2
Properties=species:S:1:pos:R:3:forces:R:3 energy=18.187552217197645 pbc="F F F"
Au       0.00000000       0.00000000       0.00000000       0.00000000       0.00000000     -70.49732971
Au       0.00000000       0.00000000       1.59090909       0.00000000       0.00000000      70.49732971
2
Properties=species:S:1:pos:R:3:forces:R:3 energy=14.476689450656261 pbc="F F F"
Au       0.00000000       0.00000000       0.00000000       0.00000000       0.00000000     -58.53802109
Au       0.00000000       0.00000000       1.64969697       0.00000000       0.00000000      58.53802109
2
Properties=species:S:1:pos:R:3:forces:R:3 energy=11.190895691136287 pbc="F F F"
Au       0.00000000       0.00000000       0.00000000       0.00000000       0.00000000     -53.12993622
Au       0.00000000       0.00000000       1.70848485       0.00000000       0.00000000      53.12993622
2
Properties=species:S:1:pos:R:3:forces:R:3 energy=8.268857626269543 pbc="F F F"
Au       0.00000000       0.00000000       0.00000000       0.00000000       0.00000000     -45.99966431
Au       0.00000000       0.00000000       1.76727273       0.00000000       0.00000000      45.99966431
2
Properties=species:S:1:pos:R:3:forces:R:3 energy=5.796790652252943 pbc="F F F"
Au       0.00000000       0.00000000       0.00000000       0.00000000       0.00000000     -38.11716080
Au       0.00000000       0.00000000       1.82606061       0.00000000       0.00000000      38.11716080
2
Properties=species:S:1:pos:R:3:forces:R:3 energy=3.7755794849167175 pbc="F F F"
Au       0.00000000       0.00000000       0.00000000       0.00000000       0.00000000     -30.79577827
Au       0.00000000       0.00000000       1.88484848       0.00000000       0.00000000      30.79577827
2
Properties=species:S:1:pos:R:3:forces:R:3 energy=2.1560390913197605 pbc="F F F"
Au       0.00000000       0.00000000       0.00000000       0.00000000       0.00000000     -24.47797966
Au       0.00000000       0.00000000       1.94363636       0.00000000       0.00000000      24.47797966
2
Properties=species:S:1:pos:R:3:forces:R:3 energy=0.8774541710790332 pbc="F F F"
Au       0.00000000       0.00000000       0.00000000       0.00000000       0.00000000     -19.18227959
Au       0.00000000       0.00000000       2.00242424       0.00000000       0.00000000      19.18227959
2
Properties=species:S:1:pos:R:3:forces:R:3 energy=-0.11692575136974559 pbc="F F F"
Au       0.00000000       0.00000000       0.00000000       0.00000000       0.00000000     -14.78363514
Au       0.00000000       0.00000000       2.06121212       0.00000000       0.00000000      14.78363514
2
Properties=species:S:1:pos:R:3:forces:R:3 energy=-0.8752224002427268 pbc="F F F"
Au       0.00000000       0.00000000       0.00000000       0.00000000       0.00000000     -11.12519550
Au       0.00000000       0.00000000       2.12000000       0.00000000       0.00000000      11.12519550
2
Properties=species:S:1:pos:R:3:forces:R:3 energy=-1.4369176835347803 pbc="F F F"
Au       0.00000000       0.00000000       0.00000000       0.00000000       0.00000000      -8.07771778
Au       0.00000000       0.00000000       2.17878788       0.00000000       0.00000000       8.07771778
2
Properties=species:S:1:pos:R:3:forces:R:3 energy=-1.835435199279093 pbc="F F F"
Au       0.00000000       0.00000000       0.00000000       0.00000000       0.00000000      -5.56572390
Au       0.00000000       0.00000000       2.23757576       0.00000000       0.00000000       5.56572390
2
Properties=species:S:1:pos:R:3:forces:R:3 energy=-2.101115910614459 pbc="F F F"
Au       0.00000000       0.00000000       0.00000000       0.00000000       0.00000000      -3.55433679
Au       0.00000000       0.00000000       2.29636364       0.00000000       0.00000000       3.55433679
2
Properties=species:S:1:pos:R:3:forces:R:3 energy=-2.2626061235941735 pbc="F F F"
Au       0.00000000       0.00000000       0.00000000       0.00000000       0.00000000      -2.01514363
Au       0.00000000       0.00000000       2.35515152       0.00000000       0.00000000       2.01514363
2
Properties=species:S:1:pos:R:3:forces:R:3 energy=-2.346380180694268 pbc="F F F"
Au       0.00000000       0.00000000       0.00000000       0.00000000       0.00000000      -0.90025949
Au       0.00000000       0.00000000       2.41393939       0.00000000       0.00000000       0.90025949
2
Properties=species:S:1:pos:R:3:forces:R:3 energy=-2.3753745956198804 pbc="F F F"
Au       0.00000000       0.00000000       0.00000000       0.00000000       0.00000000      -0.13808368
Au       0.00000000       0.00000000       2.47272727       0.00000000       0.00000000       0.13808368
2
Properties=species:S:1:pos:R:3:forces:R:3 energy=-2.367880065483407 pbc="F F F"
Au       0.00000000       0.00000000       0.00000000       0.00000000       0.00000000       0.35522449
Au       0.00000000       0.00000000       2.53151515       0.00000000       0.00000000      -0.35522449
2
Properties=species:S:1:pos:R:3:forces:R:3 energy=-2.3372929546178653 pbc="F F F"
Au       0.00000000       0.00000000       0.00000000       0.00000000       0.00000000       0.65996796
Au       0.00000000       0.00000000       2.59030303       0.00000000       0.00000000      -0.65996796
2
Properties=species:S:1:pos:R:3:forces:R:3 energy=-2.2926831821298874 pbc="F F F"
Au       0.00000000       0.00000000       0.00000000       0.00000000       0.00000000       0.84165096
Au       0.00000000       0.00000000       2.64909091       0.00000000       0.00000000      -0.84165096
2
Properties=species:S:1:pos:R:3:forces:R:3 energy=-2.239814173925512 pbc="F F F"
Au       0.00000000       0.00000000       0.00000000       0.00000000       0.00000000       0.94732249
Au       0.00000000       0.00000000       2.70787879       0.00000000       0.00000000      -0.94732249
2
Properties=species:S:1:pos:R:3:forces:R:3 energy=-2.1821702459018506 pbc="F F F"
Au       0.00000000       0.00000000       0.00000000       0.00000000       0.00000000       1.00826335
Au       0.00000000       0.00000000       2.76666667       0.00000000       0.00000000      -1.00826335
2
Properties=species:S:1:pos:R:3:forces:R:3 energy=-2.121733981756006 pbc="F F F"
Au       0.00000000       0.00000000       0.00000000       0.00000000       0.00000000       1.04514956
Au       0.00000000       0.00000000       2.82545455       0.00000000       0.00000000      -1.04514956
2
Properties=species:S:1:pos:R:3:forces:R:3 energy=-2.0594769784483353 pbc="F F F"
Au       0.00000000       0.00000000       0.00000000       0.00000000       0.00000000       1.07217431
Au       0.00000000       0.00000000       2.88424242       0.00000000       0.00000000      -1.07217431
2
Properties=species:S:1:pos:R:3:forces:R:3 energy=-1.9956742209833571 pbc="F F F"
Au       0.00000000       0.00000000       0.00000000       0.00000000       0.00000000       1.09898722
Au       0.00000000       0.00000000       2.94303030       0.00000000       0.00000000      -1.09898722
2
Properties=species:S:1:pos:R:3:forces:R:3 energy=-1.9301557185908482 pbc="F F F"
Au       0.00000000       0.00000000       0.00000000       0.00000000       0.00000000       1.13111794
Au       0.00000000       0.00000000       3.00181818       0.00000000       0.00000000      -1.13111794
2
Properties=species:S:1:pos:R:3:forces:R:3 energy=-1.8625559672885617 pbc="F F F"
Au       0.00000000       0.00000000       0.00000000       0.00000000       0.00000000       1.16953421
Au       0.00000000       0.00000000       3.06060606       0.00000000       0.00000000      -1.16953421
2
Properties=species:S:1:pos:R:3:forces:R:3 energy=-1.7925840643817645 pbc="F F F"
Au       0.00000000       0.00000000       0.00000000       0.00000000       0.00000000       1.21108282
Au       0.00000000       0.00000000       3.11939394       0.00000000       0.00000000      -1.21108282
2
Properties=species:S:1:pos:R:3:forces:R:3 energy=-1.7201901892935076 pbc="F F F"
Au       0.00000000       0.00000000       0.00000000       0.00000000       0.00000000       1.25120127
Au       0.00000000       0.00000000       3.17818182       0.00000000       0.00000000      -1.25120127
2
Properties=species:S:1:pos:R:3:forces:R:3 energy=-1.6455744396742085 pbc="F F F"
Au       0.00000000       0.00000000       0.00000000       0.00000000       0.00000000       1.28620112
Au       0.00000000       0.00000000       3.23696970       0.00000000       0.00000000      -1.28620112
2
Properties=species:S:1:pos:R:3:forces:R:3 energy=-1.5691177671078953 pbc="F F F"
Au       0.00000000       0.00000000       0.00000000       0.00000000       0.00000000       1.31338394
Au       0.00000000       0.00000000       3.29575758       0.00000000       0.00000000      -1.31338394
2
Properties=species:S:1:pos:R:3:forces:R:3 energy=-1.49135385574827 pbc="F F F"
Au       0.00000000       0.00000000       0.00000000       0.00000000       0.00000000       1.33025885
Au       0.00000000       0.00000000       3.35454545       0.00000000       0.00000000      -1.33025885
2
Properties=species:S:1:pos:R:3:forces:R:3 energy=-1.4129675897485208 pbc="F F F"
Au       0.00000000       0.00000000       0.00000000       0.00000000       0.00000000       1.33409226
Au       0.00000000       0.00000000       3.41333333       0.00000000       0.00000000      -1.33409226
2
Properties=species:S:1:pos:R:3:forces:R:3 energy=-1.3348056965825195 pbc="F F F"
Au       0.00000000       0.00000000       0.00000000       0.00000000       0.00000000       1.32219529
Au       0.00000000       0.00000000       3.47212121       0.00000000       0.00000000      -1.32219529
2
Properties=species:S:1:pos:R:3:forces:R:3 energy=-1.2578559733025858 pbc="F F F"
Au       0.00000000       0.00000000       0.00000000       0.00000000       0.00000000       1.29268837
Au       0.00000000       0.00000000       3.53090909       0.00000000       0.00000000      -1.29268837
2
Properties=species:S:1:pos:R:3:forces:R:3 energy=-1.1831693907006051 pbc="F F F"
Au       0.00000000       0.00000000       0.00000000       0.00000000       0.00000000       1.24524236
Au       0.00000000       0.00000000       3.58969697       0.00000000       0.00000000      -1.24524236
2
Properties=species:S:1:pos:R:3:forces:R:3 energy=-1.1117684528827345 pbc="F F F"
Au       0.00000000       0.00000000       0.00000000       0.00000000       0.00000000       1.18134701
Au       0.00000000       0.00000000       3.64848485       0.00000000       0.00000000      -1.18134701
2
Properties=species:S:1:pos:R:3:forces:R:3 energy=-1.0445362014216117 pbc="F F F"
Au       0.00000000       0.00000000       0.00000000       0.00000000       0.00000000       1.10401809
Au       0.00000000       0.00000000       3.70727273       0.00000000       0.00000000      -1.10401809
2
Properties=species:S:1:pos:R:3:forces:R:3 energy=-0.9821485416618375 pbc="F F F"
Au       0.00000000       0.00000000       0.00000000       0.00000000       0.00000000       1.01718688
Au       0.00000000       0.00000000       3.76606061       0.00000000       0.00000000      -1.01718688
2
Properties=species:S:1:pos:R:3:forces:R:3 energy=-0.925043137766951 pbc="F F F"
Au       0.00000000       0.00000000       0.00000000       0.00000000       0.00000000       0.92504996
Au       0.00000000       0.00000000       3.82484848       0.00000000       0.00000000      -0.92504996
2
Properties=species:S:1:pos:R:3:forces:R:3 energy=-0.8734106082390665 pbc="F F F"
Au       0.00000000       0.00000000       0.00000000       0.00000000       0.00000000       0.83158600
Au       0.00000000       0.00000000       3.88363636       0.00000000       0.00000000      -0.83158600
2
Properties=species:S:1:pos:R:3:forces:R:3 energy=-0.8272258842976686 pbc="F F F"
Au       0.00000000       0.00000000       0.00000000       0.00000000       0.00000000       0.74028724
Au       0.00000000       0.00000000       3.94242424       0.00000000       0.00000000      -0.74028724
2
Properties=species:S:1:pos:R:3:forces:R:3 energy=-0.7862723261700987 pbc="F F F"
Au       0.00000000       0.00000000       0.00000000       0.00000000       0.00000000       0.65403873
Au       0.00000000       0.00000000       4.00121212       0.00000000       0.00000000      -0.65403873
2
Properties=species:S:1:pos:R:3:forces:R:3 energy=-0.7501838028028127 pbc="F F F"
Au       0.00000000       0.00000000       0.00000000       0.00000000       0.00000000       0.57507026
Au       0.00000000       0.00000000       4.06000000       0.00000000       0.00000000      -0.57507026
2
Properties=species:S:1:pos:R:3:forces:R:3 energy=-0.7184846370608241 pbc="F F F"
Au       0.00000000       0.00000000       0.00000000       0.00000000       0.00000000       0.50494039
Au       0.00000000       0.00000000       4.11878788       0.00000000       0.00000000      -0.50494039
2
Properties=species:S:1:pos:R:3:forces:R:3 energy=-0.6906243762424105 pbc="F F F"
Au       0.00000000       0.00000000       0.00000000       0.00000000       0.00000000       0.44452298
Au       0.00000000       0.00000000       4.17757576       0.00000000       0.00000000      -0.44452298
2
Properties=species:S:1:pos:R:3:forces:R:3 energy=-0.6660236971590571 pbc="F F F"
Au       0.00000000       0.00000000       0.00000000       0.00000000       0.00000000       0.39404050
Au       0.00000000       0.00000000       4.23636364       0.00000000       0.00000000      -0.39404050
2
Properties=species:S:1:pos:R:3:forces:R:3 energy=-0.6441061584040597 pbc="F F F"
Au       0.00000000       0.00000000       0.00000000       0.00000000       0.00000000       0.35313517
Au       0.00000000       0.00000000       4.29515152       0.00000000       0.00000000      -0.35313517
2
Properties=species:S:1:pos:R:3:forces:R:3 energy=-0.6243316918272435 pbc="F F F"
Au       0.00000000       0.00000000       0.00000000       0.00000000       0.00000000       0.32101104
Au       0.00000000       0.00000000       4.35393939       0.00000000       0.00000000      -0.32101104
2
Properties=species:S:1:pos:R:3:forces:R:3 energy=-0.6062131366122153 pbc="F F F"
Au       0.00000000       0.00000000       0.00000000       0.00000000       0.00000000       0.29656208
Au       0.00000000       0.00000000       4.41272727       0.00000000       0.00000000      -0.29656208
2
Properties=species:S:1:pos:R:3:forces:R:3 energy=-0.5893376795254608 pbc="F F F"
Au       0.00000000       0.00000000       0.00000000       0.00000000       0.00000000       0.27849433
Au       0.00000000       0.00000000       4.47151515       0.00000000       0.00000000      -0.27849433
2
Properties=species:S:1:pos:R:3:forces:R:3 energy=-0.5733719981708001 pbc="F F F"
Au       0.00000000       0.00000000       0.00000000       0.00000000       0.00000000       0.26534703
Au       0.00000000       0.00000000       4.53030303       0.00000000       0.00000000      -0.26534703
2
Properties=species:S:1:pos:R:3:forces:R:3 energy=-0.558075074404103 pbc="F F F"
Au       0.00000000       0.00000000       0.00000000       0.00000000       0.00000000       0.25547192
Au       0.00000000       0.00000000       4.58909091       0.00000000       0.00000000      -0.25547192
2
Properties=species:S:1:pos:R:3:forces:R:3 energy=-0.5433067984089404 pbc="F F F"
Au       0.00000000       0.00000000       0.00000000       0.00000000       0.00000000       0.24704425
Au       0.00000000       0.00000000       4.64787879       0.00000000       0.00000000      -0.24704425
2
Properties=species:S:1:pos:R:3:forces:R:3 energy=-0.5290373993177053 pbc="F F F"
Au       0.00000000       0.00000000       0.00000000       0.00000000       0.00000000       0.23816942
Au       0.00000000       0.00000000       4.70666667       0.00000000       0.00000000      -0.23816942
2
Properties=species:S:1:pos:R:3:forces:R:3 energy=-0.5153456196423809 pbc="F F F"
Au       0.00000000       0.00000000       0.00000000       0.00000000       0.00000000       0.22718482
Au       0.00000000       0.00000000       4.76545455       0.00000000       0.00000000      -0.22718482
2
Properties=species:S:1:pos:R:3:forces:R:3 energy=-0.502387535125702 pbc="F F F"
Au       0.00000000       0.00000000       0.00000000       0.00000000       0.00000000       0.21306722
Au       0.00000000       0.00000000       4.82424242       0.00000000       0.00000000      -0.21306722
2
Properties=species:S:1:pos:R:3:forces:R:3 energy=-0.49035571130428435 pbc="F F F"
Au       0.00000000       0.00000000       0.00000000       0.00000000       0.00000000       0.19586463
Au       0.00000000       0.00000000       4.88303030       0.00000000       0.00000000      -0.19586463
2
Properties=species:S:1:pos:R:3:forces:R:3 energy=-0.4793946949177229 pbc="F F F"
Au       0.00000000       0.00000000       0.00000000       0.00000000       0.00000000       0.17688335
Au       0.00000000       0.00000000       4.94181818       0.00000000       0.00000000      -0.17688335
2
Properties=species:S:1:pos:R:3:forces:R:3 energy=-0.4695468317025797 pbc="F F F"
Au       0.00000000       0.00000000       0.00000000       0.00000000       0.00000000       0.15848199
Au       0.00000000       0.00000000       5.00060606       0.00000000       0.00000000      -0.15848199
2
Properties=species:S:1:pos:R:3:forces:R:3 energy=-0.46069709812588705 pbc="F F F"
Au       0.00000000       0.00000000       0.00000000       0.00000000       0.00000000       0.14329949
Au       0.00000000       0.00000000       5.05939394       0.00000000       0.00000000      -0.14329949
2
Properties=species:S:1:pos:R:3:forces:R:3 energy=-0.45259964862676266 pbc="F F F"
Au       0.00000000       0.00000000       0.00000000       0.00000000       0.00000000       0.13307622
Au       0.00000000       0.00000000       5.11818182       0.00000000       0.00000000      -0.13307622
2
Properties=species:S:1:pos:R:3:forces:R:3 energy=-0.44495905733121466 pbc="F F F"
Au       0.00000000       0.00000000       0.00000000       0.00000000       0.00000000       0.12745492
Au       0.00000000       0.00000000       5.17696970       0.00000000       0.00000000      -0.12745492
2
Properties=species:S:1:pos:R:3:forces:R:3 energy=-0.4375801143199164 pbc="F F F"
Au       0.00000000       0.00000000       0.00000000       0.00000000       0.00000000       0.12352741
Au       0.00000000       0.00000000       5.23575758       0.00000000       0.00000000      -0.12352741
2
Properties=species:S:1:pos:R:3:forces:R:3 energy=-0.43048211595065244 pbc="F F F"
Au       0.00000000       0.00000000       0.00000000       0.00000000       0.00000000       0.11732773
Au       0.00000000       0.00000000       5.29454545       0.00000000       0.00000000      -0.11732773
2
Properties=species:S:1:pos:R:3:forces:R:3 energy=-0.4238437438171657 pbc="F F F"
Au       0.00000000       0.00000000       0.00000000       0.00000000       0.00000000       0.10846392
Au       0.00000000       0.00000000       5.35333333       0.00000000       0.00000000      -0.10846392
2
Properties=species:S:1:pos:R:3:forces:R:3 energy=-0.41762841054294364 pbc="F F F"
Au       0.00000000       0.00000000       0.00000000       0.00000000       0.00000000       0.10481352
Au       0.00000000       0.00000000       5.41212121       0.00000000       0.00000000      -0.10481352
2
Properties=species:S:1:pos:R:3:forces:R:3 energy=-0.4112889377732885 pbc="F F F"
Au       0.00000000       0.00000000       0.00000000       0.00000000       0.00000000       0.11191352
Au       0.00000000       0.00000000       5.47090909       0.00000000       0.00000000      -0.11191352
2
Properties=species:S:1:pos:R:3:forces:R:3 energy=-0.4045809765948107 pbc="F F F"
Au       0.00000000       0.00000000       0.00000000       0.00000000       0.00000000       0.11351371
Au       0.00000000       0.00000000       5.52969697       0.00000000       0.00000000      -0.11351371
2
Properties=species:S:1:pos:R:3:forces:R:3 energy=-0.3982924117482995 pbc="F F F"
Au       0.00000000       0.00000000       0.00000000       0.00000000       0.00000000       0.09839933
Au       0.00000000       0.00000000       5.58848485       0.00000000       0.00000000      -0.09839933
2
Properties=species:S:1:pos:R:3:forces:R:3 energy=-0.3930486965220119 pbc="F F F"
Au       0.00000000       0.00000000       0.00000000       0.00000000       0.00000000       0.08149666
Au       0.00000000       0.00000000       5.64727273       0.00000000       0.00000000      -0.08149666
2
Properties=species:S:1:pos:R:3:forces:R:3 energy=-0.3884371658612544 pbc="F F F"
Au       0.00000000       0.00000000       0.00000000       0.00000000       0.00000000       0.07763856
Au       0.00000000       0.00000000       5.70606061       0.00000000       0.00000000      -0.07763856
2
Properties=species:S:1:pos:R:3:forces:R:3 energy=-0.3838453235120913 pbc="F F F"
Au       0.00000000       0.00000000       0.00000000       0.00000000       0.00000000       0.07647155
Au       0.00000000       0.00000000       5.76484848       0.00000000       0.00000000      -0.07647155
2
Properties=species:S:1:pos:R:3:forces:R:3 energy=-0.3798206679309398 pbc="F F F"
Au       0.00000000       0.00000000       0.00000000       0.00000000       0.00000000       0.05746084
Au       0.00000000       0.00000000       5.82363636       0.00000000       0.00000000      -0.05746084
2
Properties=species:S:1:pos:R:3:forces:R:3 energy=-0.37725479964825076 pbc="F F F"
Au       0.00000000       0.00000000       0.00000000       0.00000000       0.00000000       0.03064665
Au       0.00000000       0.00000000       5.88242424       0.00000000       0.00000000      -0.03064665
2
Properties=species:S:1:pos:R:3:forces:R:3 energy=-0.3760440546952372 pbc="F F F"
Au       0.00000000       0.00000000       0.00000000       0.00000000       0.00000000       0.01230253
Au       0.00000000       0.00000000       5.94121212       0.00000000       0.00000000      -0.01230253
2
Properties=species:S:1:pos:R:3:forces:R:3 energy=-0.37557184608423094 pbc="F F F"
Au       0.00000000       0.00000000       0.00000000       0.00000000       0.00000000       0.00582827
Au       0.00000000       0.00000000       6.00000000       0.00000000       0.00000000      -0.00582827
