2
Properties=species:S:1:pos:R:3:forces:R:3 energy=322.7628938742973 pbc="F F F"
B        0.00000000       0.00000000       0.00000000       0.00000000       0.00000000   -3484.97607422
B        0.00000000       0.00000000       0.18000000       0.00000000       0.00000000    3484.97607422
2
Properties=species:S:1:pos:R:3:forces:R:3 energy=187.49240132217022 pbc="F F F"
B        0.00000000       0.00000000       0.00000000       0.00000000       0.00000000   -1470.85473633
B        0.00000000       0.00000000       0.23878788       0.00000000       0.00000000    1470.85473633
2
Properties=species:S:1:pos:R:3:forces:R:3 energy=126.23562642299432 pbc="F F F"
B        0.00000000       0.00000000       0.00000000       0.00000000       0.00000000    -725.27008057
B        0.00000000       0.00000000       0.29757576       0.00000000       0.00000000     725.27008057
2
Properties=species:S:1:pos:R:3:forces:R:3 energy=93.74282094837292 pbc="F F F"
B        0.00000000       0.00000000       0.00000000       0.00000000       0.00000000    -427.34887695
B        0.00000000       0.00000000       0.35636364       0.00000000       0.00000000     427.34887695
2
Properties=species:S:1:pos:R:3:forces:R:3 energy=72.6512606004425 pbc="F F F"
B        0.00000000       0.00000000       0.00000000       0.00000000       0.00000000    -304.53475952
B        0.00000000       0.00000000       0.41515152       0.00000000       0.00000000     304.53475952
2
Properties=species:S:1:pos:R:3:forces:R:3 energy=56.67743708634135 pbc="F F F"
B        0.00000000       0.00000000       0.00000000       0.00000000       0.00000000    -246.69671631
B        0.00000000       0.00000000       0.47393939       0.00000000       0.00000000     246.69671631
2
Properties=species:S:1:pos:R:3:forces:R:3 energy=43.066288313885366 pbc="F F F"
B        0.00000000       0.00000000       0.00000000       0.00000000       0.00000000    -217.35873413
B        0.00000000       0.00000000       0.53272727       0.00000000       0.00000000     217.35873413
2
Properties=species:S:1:pos:R:3:forces:R:3 energy=31.50102848653573 pbc="F F F"
B        0.00000000       0.00000000       0.00000000       0.00000000       0.00000000    -172.61387634
B        0.00000000       0.00000000       0.59151515       0.00000000       0.00000000     172.61387634
2
Properties=species:S:1:pos:R:3:forces:R:3 energy=22.84380972766048 pbc="F F F"
B        0.00000000       0.00000000       0.00000000       0.00000000       0.00000000    -125.08567047
B        0.00000000       0.00000000       0.65030303       0.00000000       0.00000000     125.08567047
2
Properties=species:S:1:pos:R:3:forces:R:3 energy=16.453156394615426 pbc="F F F"
B        0.00000000       0.00000000       0.00000000       0.00000000       0.00000000     -90.40689850
B        0.00000000       0.00000000       0.70909091       0.00000000       0.00000000      90.40689850
2
Properties=species:S:1:pos:R:3:forces:R:3 energy=12.502351151873272 pbc="F F F"
B        0.00000000       0.00000000       0.00000000       0.00000000       0.00000000     -46.32437897
B        0.00000000       0.00000000       0.76787879       0.00000000       0.00000000      46.32437897
2
Properties=species:S:1:pos:R:3:forces:R:3 energy=10.194197665042365 pbc="F F F"
B        0.00000000       0.00000000       0.00000000       0.00000000       0.00000000     -40.58570480
B        0.00000000       0.00000000       0.82666667       0.00000000       0.00000000      40.58570480
2
Properties=species:S:1:pos:R:3:forces:R:3 energy=7.4730510179689436 pbc="F F F"
B        0.00000000       0.00000000       0.00000000       0.00000000       0.00000000     -49.50894928
B        0.00000000       0.00000000       0.88545455       0.00000000       0.00000000      49.50894928
2
Properties=species:S:1:pos:R:3:forces:R:3 energy=4.620219465565772 pbc="F F F"
B        0.00000000       0.00000000       0.00000000       0.00000000       0.00000000     -46.38674164
B        0.00000000       0.00000000       0.94424242       0.00000000       0.00000000      46.38674164
2
Properties=species:S:1:pos:R:3:forces:R:3 energy=2.114053524383043 pbc="F F F"
B        0.00000000       0.00000000       0.00000000       0.00000000       0.00000000     -38.31144333
B        0.00000000       0.00000000       1.00303030       0.00000000       0.00000000      38.31144333
2
Properties=species:S:1:pos:R:3:forces:R:3 energy=0.14303114008291432 pbc="F F F"
B        0.00000000       0.00000000       0.00000000       0.00000000       0.00000000     -28.82934761
B        0.00000000       0.00000000       1.06181818       0.00000000       0.00000000      28.82934761
2
Properties=species:S:1:pos:R:3:forces:R:3 energy=-1.3078344723085626 pbc="F F F"
B        0.00000000       0.00000000       0.00000000       0.00000000       0.00000000     -20.89994049
B        0.00000000       0.00000000       1.12060606       0.00000000       0.00000000      20.89994049
2
Properties=species:S:1:pos:R:3:forces:R:3 energy=-2.35763327050749 pbc="F F F"
B        0.00000000       0.00000000       0.00000000       0.00000000       0.00000000     -15.14416027
B        0.00000000       0.00000000       1.17939394       0.00000000       0.00000000      15.14416027
2
Properties=species:S:1:pos:R:3:forces:R:3 energy=-3.120008757618129 pbc="F F F"
B        0.00000000       0.00000000       0.00000000       0.00000000       0.00000000     -11.00597858
B        0.00000000       0.00000000       1.23818182       0.00000000       0.00000000      11.00597858
2
Properties=species:S:1:pos:R:3:forces:R:3 energy=-3.6728187369373124 pbc="F F F"
B        0.00000000       0.00000000       0.00000000       0.00000000       0.00000000      -7.95949793
B        0.00000000       0.00000000       1.29696970       0.00000000       0.00000000       7.95949793
2
Properties=species:S:1:pos:R:3:forces:R:3 energy=-4.072407622555132 pbc="F F F"
B        0.00000000       0.00000000       0.00000000       0.00000000       0.00000000      -5.75165033
B        0.00000000       0.00000000       1.35575758       0.00000000       0.00000000       5.75165033
2
Properties=species:S:1:pos:R:3:forces:R:3 energy=-4.359050177079736 pbc="F F F"
B        0.00000000       0.00000000       0.00000000       0.00000000       0.00000000      -4.05402184
B        0.00000000       0.00000000       1.41454545       0.00000000       0.00000000       4.05402184
2
Properties=species:S:1:pos:R:3:forces:R:3 energy=-4.553114219211661 pbc="F F F"
B        0.00000000       0.00000000       0.00000000       0.00000000       0.00000000      -2.57315493
B        0.00000000       0.00000000       1.47333333       0.00000000       0.00000000       2.57315493
2
Properties=species:S:1:pos:R:3:forces:R:3 energy=-4.664676013280851 pbc="F F F"
B        0.00000000       0.00000000       0.00000000       0.00000000       0.00000000      -1.25304055
B        0.00000000       0.00000000       1.53212121       0.00000000       0.00000000       1.25304055
2
Properties=species:S:1:pos:R:3:forces:R:3 energy=-4.704617446843897 pbc="F F F"
B        0.00000000       0.00000000       0.00000000       0.00000000       0.00000000      -0.14444515
B        0.00000000       0.00000000       1.59090909       0.00000000       0.00000000       0.14444515
2
Properties=species:S:1:pos:R:3:forces:R:3 energy=-4.686276881947572 pbc="F F F"
B        0.00000000       0.00000000       0.00000000       0.00000000       0.00000000       0.72986633
B        0.00000000       0.00000000       1.64969697       0.00000000       0.00000000      -0.72986633
2
Properties=species:S:1:pos:R:3:forces:R:3 energy=-4.623118595103327 pbc="F F F"
B        0.00000000       0.00000000       0.00000000       0.00000000       0.00000000       1.38483191
B        0.00000000       0.00000000       1.70848485       0.00000000       0.00000000      -1.38483191
2
Properties=species:S:1:pos:R:3:forces:R:3 energy=-4.527073798561821 pbc="F F F"
B        0.00000000       0.00000000       0.00000000       0.00000000       0.00000000       1.85509062
B        0.00000000       0.00000000       1.76727273       0.00000000       0.00000000      -1.85509062
2
Properties=species:S:1:pos:R:3:forces:R:3 energy=-4.407756862482314 pbc="F F F"
B        0.00000000       0.00000000       0.00000000       0.00000000       0.00000000       2.18534279
B        0.00000000       0.00000000       1.82606061       0.00000000       0.00000000      -2.18534279
2
Properties=species:S:1:pos:R:3:forces:R:3 energy=-4.271789630924904 pbc="F F F"
B        0.00000000       0.00000000       0.00000000       0.00000000       0.00000000       2.43046045
B        0.00000000       0.00000000       1.88484848       0.00000000       0.00000000      -2.43046045
2
Properties=species:S:1:pos:R:3:forces:R:3 energy=-4.12280119278604 pbc="F F F"
B        0.00000000       0.00000000       0.00000000       0.00000000       0.00000000       2.63335180
B        0.00000000       0.00000000       1.94363636       0.00000000       0.00000000      -2.63335180
2
Properties=species:S:1:pos:R:3:forces:R:3 energy=-3.9626365282904366 pbc="F F F"
B        0.00000000       0.00000000       0.00000000       0.00000000       0.00000000       2.81223226
B        0.00000000       0.00000000       2.00242424       0.00000000       0.00000000      -2.81223226
2
Properties=species:S:1:pos:R:3:forces:R:3 energy=-3.792449373837801 pbc="F F F"
B        0.00000000       0.00000000       0.00000000       0.00000000       0.00000000       2.97592163
B        0.00000000       0.00000000       2.06121212       0.00000000       0.00000000      -2.97592163
2
Properties=species:S:1:pos:R:3:forces:R:3 energy=-3.6129744393145447 pbc="F F F"
B        0.00000000       0.00000000       0.00000000       0.00000000       0.00000000       3.12698317
B        0.00000000       0.00000000       2.12000000       0.00000000       0.00000000      -3.12698317
2
Properties=species:S:1:pos:R:3:forces:R:3 energy=-3.4252584324560504 pbc="F F F"
B        0.00000000       0.00000000       0.00000000       0.00000000       0.00000000       3.25463891
B        0.00000000       0.00000000       2.17878788       0.00000000       0.00000000      -3.25463891
2
Properties=species:S:1:pos:R:3:forces:R:3 energy=-3.230843566396475 pbc="F F F"
B        0.00000000       0.00000000       0.00000000       0.00000000       0.00000000       3.35504961
B        0.00000000       0.00000000       2.23757576       0.00000000       0.00000000      -3.35504961
2
Properties=species:S:1:pos:R:3:forces:R:3 energy=-3.0313515906217945 pbc="F F F"
B        0.00000000       0.00000000       0.00000000       0.00000000       0.00000000       3.42628431
B        0.00000000       0.00000000       2.29636364       0.00000000       0.00000000      -3.42628431
2
Properties=species:S:1:pos:R:3:forces:R:3 energy=-2.82875800307482 pbc="F F F"
B        0.00000000       0.00000000       0.00000000       0.00000000       0.00000000       3.45844483
B        0.00000000       0.00000000       2.35515152       0.00000000       0.00000000      -3.45844483
2
Properties=species:S:1:pos:R:3:forces:R:3 energy=-2.6257509111712505 pbc="F F F"
B        0.00000000       0.00000000       0.00000000       0.00000000       0.00000000       3.43832111
B        0.00000000       0.00000000       2.41393939       0.00000000       0.00000000      -3.43832111
2
Properties=species:S:1:pos:R:3:forces:R:3 energy=-2.4256931167244216 pbc="F F F"
B        0.00000000       0.00000000       0.00000000       0.00000000       0.00000000       3.35726190
B        0.00000000       0.00000000       2.47272727       0.00000000       0.00000000      -3.35726190
2
Properties=species:S:1:pos:R:3:forces:R:3 energy=-2.232224822409211 pbc="F F F"
B        0.00000000       0.00000000       0.00000000       0.00000000       0.00000000       3.21476579
B        0.00000000       0.00000000       2.53151515       0.00000000       0.00000000      -3.21476579
2
Properties=species:S:1:pos:R:3:forces:R:3 energy=-2.0487883847560444 pbc="F F F"
B        0.00000000       0.00000000       0.00000000       0.00000000       0.00000000       3.01767588
B        0.00000000       0.00000000       2.59030303       0.00000000       0.00000000      -3.01767588
2
Properties=species:S:1:pos:R:3:forces:R:3 energy=-1.8782529774878578 pbc="F F F"
B        0.00000000       0.00000000       0.00000000       0.00000000       0.00000000       2.77821183
B        0.00000000       0.00000000       2.64909091       0.00000000       0.00000000      -2.77821183
2
Properties=species:S:1:pos:R:3:forces:R:3 energy=-1.7226535540386219 pbc="F F F"
B        0.00000000       0.00000000       0.00000000       0.00000000       0.00000000       2.51242638
B        0.00000000       0.00000000       2.70787879       0.00000000       0.00000000      -2.51242638
2
Properties=species:S:1:pos:R:3:forces:R:3 energy=-1.5830199119436936 pbc="F F F"
B        0.00000000       0.00000000       0.00000000       0.00000000       0.00000000       2.23805165
B        0.00000000       0.00000000       2.76666667       0.00000000       0.00000000      -2.23805165
2
Properties=species:S:1:pos:R:3:forces:R:3 energy=-1.459359458850054 pbc="F F F"
B        0.00000000       0.00000000       0.00000000       0.00000000       0.00000000       1.97136986
B        0.00000000       0.00000000       2.82545455       0.00000000       0.00000000      -1.97136986
2
Properties=species:S:1:pos:R:3:forces:R:3 energy=-1.3508426676608392 pbc="F F F"
B        0.00000000       0.00000000       0.00000000       0.00000000       0.00000000       1.72445571
B        0.00000000       0.00000000       2.88424242       0.00000000       0.00000000      -1.72445571
2
Properties=species:S:1:pos:R:3:forces:R:3 energy=-1.2560853011125883 pbc="F F F"
B        0.00000000       0.00000000       0.00000000       0.00000000       0.00000000       1.50392342
B        0.00000000       0.00000000       2.94303030       0.00000000       0.00000000      -1.50392342
2
Properties=species:S:1:pos:R:3:forces:R:3 energy=-1.1734698296982242 pbc="F F F"
B        0.00000000       0.00000000       0.00000000       0.00000000       0.00000000       1.31125307
B        0.00000000       0.00000000       3.00181818       0.00000000       0.00000000      -1.31125307
2
Properties=species:S:1:pos:R:3:forces:R:3 energy=-1.1014110533068786 pbc="F F F"
B        0.00000000       0.00000000       0.00000000       0.00000000       0.00000000       1.14413726
B        0.00000000       0.00000000       3.06060606       0.00000000       0.00000000      -1.14413726
2
Properties=species:S:1:pos:R:3:forces:R:3 energy=-1.038530596281348 pbc="F F F"
B        0.00000000       0.00000000       0.00000000       0.00000000       0.00000000       0.99823540
B        0.00000000       0.00000000       3.11939394       0.00000000       0.00000000      -0.99823540
2
Properties=species:S:1:pos:R:3:forces:R:3 energy=-0.9837204528890442 pbc="F F F"
B        0.00000000       0.00000000       0.00000000       0.00000000       0.00000000       0.86883360
B        0.00000000       0.00000000       3.17818182       0.00000000       0.00000000      -0.86883360
2
Properties=species:S:1:pos:R:3:forces:R:3 energy=-0.936129253495095 pbc="F F F"
B        0.00000000       0.00000000       0.00000000       0.00000000       0.00000000       0.75214070
B        0.00000000       0.00000000       3.23696970       0.00000000       0.00000000      -0.75214070
2
Properties=species:S:1:pos:R:3:forces:R:3 energy=-0.8950817951240753 pbc="F F F"
B        0.00000000       0.00000000       0.00000000       0.00000000       0.00000000       0.64597136
B        0.00000000       0.00000000       3.29575758       0.00000000       0.00000000      -0.64597136
2
Properties=species:S:1:pos:R:3:forces:R:3 energy=-0.8599826981792946 pbc="F F F"
B        0.00000000       0.00000000       0.00000000       0.00000000       0.00000000       0.54982817
B        0.00000000       0.00000000       3.35454545       0.00000000       0.00000000      -0.54982817
2
Properties=species:S:1:pos:R:3:forces:R:3 energy=-0.8302243636159998 pbc="F F F"
B        0.00000000       0.00000000       0.00000000       0.00000000       0.00000000       0.46447384
B        0.00000000       0.00000000       3.41333333       0.00000000       0.00000000      -0.46447384
2
Properties=species:S:1:pos:R:3:forces:R:3 energy=-0.8051337311544149 pbc="F F F"
B        0.00000000       0.00000000       0.00000000       0.00000000       0.00000000       0.39125490
B        0.00000000       0.00000000       3.47212121       0.00000000       0.00000000      -0.39125490
2
Properties=species:S:1:pos:R:3:forces:R:3 energy=-0.7839599035203652 pbc="F F F"
B        0.00000000       0.00000000       0.00000000       0.00000000       0.00000000       0.33140829
B        0.00000000       0.00000000       3.53090909       0.00000000       0.00000000      -0.33140829
2
Properties=species:S:1:pos:R:3:forces:R:3 energy=-0.7658947421419059 pbc="F F F"
B        0.00000000       0.00000000       0.00000000       0.00000000       0.00000000       0.28549576
B        0.00000000       0.00000000       3.58969697       0.00000000       0.00000000      -0.28549576
2
Properties=species:S:1:pos:R:3:forces:R:3 energy=-0.7501260590830457 pbc="F F F"
B        0.00000000       0.00000000       0.00000000       0.00000000       0.00000000       0.25313771
B        0.00000000       0.00000000       3.64848485       0.00000000       0.00000000      -0.25313771
2
Properties=species:S:1:pos:R:3:forces:R:3 energy=-0.7358930814575684 pbc="F F F"
B        0.00000000       0.00000000       0.00000000       0.00000000       0.00000000       0.23294002
B        0.00000000       0.00000000       3.70727273       0.00000000       0.00000000      -0.23294002
2
Properties=species:S:1:pos:R:3:forces:R:3 energy=-0.7225430392435975 pbc="F F F"
B        0.00000000       0.00000000       0.00000000       0.00000000       0.00000000       0.22266047
B        0.00000000       0.00000000       3.76606061       0.00000000       0.00000000      -0.22266047
2
Properties=species:S:1:pos:R:3:forces:R:3 energy=-0.709574595894818 pbc="F F F"
B        0.00000000       0.00000000       0.00000000       0.00000000       0.00000000       0.21947765
B        0.00000000       0.00000000       3.82484848       0.00000000       0.00000000      -0.21947765
2
Properties=species:S:1:pos:R:3:forces:R:3 energy=-0.6966586929590844 pbc="F F F"
B        0.00000000       0.00000000       0.00000000       0.00000000       0.00000000       0.22032677
B        0.00000000       0.00000000       3.88363636       0.00000000       0.00000000      -0.22032677
2
Properties=species:S:1:pos:R:3:forces:R:3 energy=-0.6836489486290593 pbc="F F F"
B        0.00000000       0.00000000       0.00000000       0.00000000       0.00000000       0.22221990
B        0.00000000       0.00000000       3.94242424       0.00000000       0.00000000      -0.22221990
2
Properties=species:S:1:pos:R:3:forces:R:3 energy=-0.6705630763481782 pbc="F F F"
B        0.00000000       0.00000000       0.00000000       0.00000000       0.00000000       0.22251949
B        0.00000000       0.00000000       4.00121212       0.00000000       0.00000000      -0.22251949
2
Properties=species:S:1:pos:R:3:forces:R:3 energy=-0.6575589063204275 pbc="F F F"
B        0.00000000       0.00000000       0.00000000       0.00000000       0.00000000       0.21912809
B        0.00000000       0.00000000       4.06000000       0.00000000       0.00000000      -0.21912809
2
Properties=species:S:1:pos:R:3:forces:R:3 energy=-0.6449001774039564 pbc="F F F"
B        0.00000000       0.00000000       0.00000000       0.00000000       0.00000000       0.21059689
B        0.00000000       0.00000000       4.11878788       0.00000000       0.00000000      -0.21059689
2
Properties=species:S:1:pos:R:3:forces:R:3 energy=-0.6329132861057462 pbc="F F F"
B        0.00000000       0.00000000       0.00000000       0.00000000       0.00000000       0.19619624
B        0.00000000       0.00000000       4.17757576       0.00000000       0.00000000      -0.19619624
2
Properties=species:S:1:pos:R:3:forces:R:3 energy=-0.6219463310630483 pbc="F F F"
B        0.00000000       0.00000000       0.00000000       0.00000000       0.00000000       0.17597656
B        0.00000000       0.00000000       4.23636364       0.00000000       0.00000000      -0.17597656
2
Properties=species:S:1:pos:R:3:forces:R:3 energy=-0.6123199970242003 pbc="F F F"
B        0.00000000       0.00000000       0.00000000       0.00000000       0.00000000       0.15079370
B        0.00000000       0.00000000       4.29515152       0.00000000       0.00000000      -0.15079370
2
Properties=species:S:1:pos:R:3:forces:R:3 energy=-0.6042830521457528 pbc="F F F"
B        0.00000000       0.00000000       0.00000000       0.00000000       0.00000000       0.12225161
B        0.00000000       0.00000000       4.35393939       0.00000000       0.00000000      -0.12225161
2
Properties=species:S:1:pos:R:3:forces:R:3 energy=-0.5979704029536155 pbc="F F F"
B        0.00000000       0.00000000       0.00000000       0.00000000       0.00000000       0.09249105
B        0.00000000       0.00000000       4.41272727       0.00000000       0.00000000      -0.09249105
2
Properties=species:S:1:pos:R:3:forces:R:3 energy=-0.5933856250144438 pbc="F F F"
B        0.00000000       0.00000000       0.00000000       0.00000000       0.00000000       0.06386523
B        0.00000000       0.00000000       4.47151515       0.00000000       0.00000000      -0.06386523
2
Properties=species:S:1:pos:R:3:forces:R:3 energy=-0.5903966888242388 pbc="F F F"
B        0.00000000       0.00000000       0.00000000       0.00000000       0.00000000       0.03852239
B        0.00000000       0.00000000       4.53030303       0.00000000       0.00000000      -0.03852239
2
Properties=species:S:1:pos:R:3:forces:R:3 energy=-0.5887610737466604 pbc="F F F"
B        0.00000000       0.00000000       0.00000000       0.00000000       0.00000000       0.01801274
B        0.00000000       0.00000000       4.58909091       0.00000000       0.00000000      -0.01801274
2
Properties=species:S:1:pos:R:3:forces:R:3 energy=-0.5881701756412736 pbc="F F F"
B        0.00000000       0.00000000       0.00000000       0.00000000       0.00000000       0.00301873
B        0.00000000       0.00000000       4.64787879       0.00000000       0.00000000      -0.00301873
2
Properties=species:S:1:pos:R:3:forces:R:3 energy=-0.5883022500433076 pbc="F F F"
B        0.00000000       0.00000000       0.00000000       0.00000000       0.00000000      -0.00670049
B        0.00000000       0.00000000       4.70666667       0.00000000       0.00000000       0.00670049
2
Properties=species:S:1:pos:R:3:forces:R:3 energy=-0.588873918684296 pbc="F F F"
B        0.00000000       0.00000000       0.00000000       0.00000000       0.00000000      -0.01214063
B        0.00000000       0.00000000       4.76545455       0.00000000       0.00000000       0.01214063
2
Properties=species:S:1:pos:R:3:forces:R:3 energy=-0.589672865703568 pbc="F F F"
B        0.00000000       0.00000000       0.00000000       0.00000000       0.00000000      -0.01467823
B        0.00000000       0.00000000       4.82424242       0.00000000       0.00000000       0.01467823
2
Properties=species:S:1:pos:R:3:forces:R:3 energy=-0.590567693005481 pbc="F F F"
B        0.00000000       0.00000000       0.00000000       0.00000000       0.00000000      -0.01556615
B        0.00000000       0.00000000       4.88303030       0.00000000       0.00000000       0.01556615
2
Properties=species:S:1:pos:R:3:forces:R:3 energy=-0.5914857011901629 pbc="F F F"
B        0.00000000       0.00000000       0.00000000       0.00000000       0.00000000      -0.01553530
B        0.00000000       0.00000000       4.94181818       0.00000000       0.00000000       0.01553530
2
Properties=species:S:1:pos:R:3:forces:R:3 energy=-0.5923766299226209 pbc="F F F"
B        0.00000000       0.00000000       0.00000000       0.00000000       0.00000000      -0.01458988
B        0.00000000       0.00000000       5.00060606       0.00000000       0.00000000       0.01458988
2
Properties=species:S:1:pos:R:3:forces:R:3 energy=-0.5931727319282307 pbc="F F F"
B        0.00000000       0.00000000       0.00000000       0.00000000       0.00000000      -0.01219517
B        0.00000000       0.00000000       5.05939394       0.00000000       0.00000000       0.01219517
2
Properties=species:S:1:pos:R:3:forces:R:3 energy=-0.593769878320343 pbc="F F F"
B        0.00000000       0.00000000       0.00000000       0.00000000       0.00000000      -0.00775418
B        0.00000000       0.00000000       5.11818182       0.00000000       0.00000000       0.00775418
2
Properties=species:S:1:pos:R:3:forces:R:3 energy=-0.5940427167910108 pbc="F F F"
B        0.00000000       0.00000000       0.00000000       0.00000000       0.00000000      -0.00121901
B        0.00000000       0.00000000       5.17696970       0.00000000       0.00000000       0.00121901
2
Properties=species:S:1:pos:R:3:forces:R:3 energy=-0.5938881873574319 pbc="F F F"
B        0.00000000       0.00000000       0.00000000       0.00000000       0.00000000       0.00657097
B        0.00000000       0.00000000       5.23575758       0.00000000       0.00000000      -0.00657097
2
Properties=species:S:1:pos:R:3:forces:R:3 energy=-0.5932763619561189 pbc="F F F"
B        0.00000000       0.00000000       0.00000000       0.00000000       0.00000000       0.01403717
B        0.00000000       0.00000000       5.29454545       0.00000000       0.00000000      -0.01403717
2
Properties=species:S:1:pos:R:3:forces:R:3 energy=-0.5922779958459977 pbc="F F F"
B        0.00000000       0.00000000       0.00000000       0.00000000       0.00000000       0.01947454
B        0.00000000       0.00000000       5.35333333       0.00000000       0.00000000      -0.01947454
2
Properties=species:S:1:pos:R:3:forces:R:3 energy=-0.5910426414184073 pbc="F F F"
B        0.00000000       0.00000000       0.00000000       0.00000000       0.00000000       0.02213594
B        0.00000000       0.00000000       5.41212121       0.00000000       0.00000000      -0.02213594
2
Properties=species:S:1:pos:R:3:forces:R:3 energy=-0.5897114509575496 pbc="F F F"
B        0.00000000       0.00000000       0.00000000       0.00000000       0.00000000       0.02290968
B        0.00000000       0.00000000       5.47090909       0.00000000       0.00000000      -0.02290968
2
Properties=species:S:1:pos:R:3:forces:R:3 energy=-0.5883843330952954 pbc="F F F"
B        0.00000000       0.00000000       0.00000000       0.00000000       0.00000000       0.02184731
B        0.00000000       0.00000000       5.52969697       0.00000000       0.00000000      -0.02184731
2
Properties=species:S:1:pos:R:3:forces:R:3 energy=-0.5871820016423737 pbc="F F F"
B        0.00000000       0.00000000       0.00000000       0.00000000       0.00000000       0.01888495
B        0.00000000       0.00000000       5.58848485       0.00000000       0.00000000      -0.01888495
2
Properties=species:S:1:pos:R:3:forces:R:3 energy=-0.5861649661445001 pbc="F F F"
B        0.00000000       0.00000000       0.00000000       0.00000000       0.00000000       0.01584361
B        0.00000000       0.00000000       5.64727273       0.00000000       0.00000000      -0.01584361
2
Properties=species:S:1:pos:R:3:forces:R:3 energy=-0.5853075424753542 pbc="F F F"
B        0.00000000       0.00000000       0.00000000       0.00000000       0.00000000       0.01332270
B        0.00000000       0.00000000       5.70606061       0.00000000       0.00000000      -0.01332270
2
Properties=species:S:1:pos:R:3:forces:R:3 energy=-0.5846227257553178 pbc="F F F"
B        0.00000000       0.00000000       0.00000000       0.00000000       0.00000000       0.00950957
B        0.00000000       0.00000000       5.76484848       0.00000000       0.00000000      -0.00950957
2
Properties=species:S:1:pos:R:3:forces:R:3 energy=-0.5842273930811258 pbc="F F F"
B        0.00000000       0.00000000       0.00000000       0.00000000       0.00000000       0.00397774
B        0.00000000       0.00000000       5.82363636       0.00000000       0.00000000      -0.00397774
2
Properties=species:S:1:pos:R:3:forces:R:3 energy=-0.5840996448994411 pbc="F F F"
B        0.00000000       0.00000000       0.00000000       0.00000000       0.00000000       0.00106822
B        0.00000000       0.00000000       5.88242424       0.00000000       0.00000000      -0.00106822
2
Properties=species:S:1:pos:R:3:forces:R:3 energy=-0.5840385791972205 pbc="F F F"
B        0.00000000       0.00000000       0.00000000       0.00000000       0.00000000       0.00127610
B        0.00000000       0.00000000       5.94121212       0.00000000       0.00000000      -0.00127610
2
Properties=species:S:1:pos:R:3:forces:R:3 energy=-0.5839489502178948 pbc="F F F"
B        0.00000000       0.00000000       0.00000000       0.00000000       0.00000000       0.00162845
B        0.00000000       0.00000000       6.00000000       0.00000000       0.00000000      -0.00162845
