2
Properties=species:S:1:pos:R:3:forces:R:3 energy=215.25464188474936 pbc="F F F"
Be       0.00000000       0.00000000       0.00000000       0.00000000       0.00000000   -2368.57080078
Be       0.00000000       0.00000000       0.18000000       0.00000000       0.00000000    2368.57080078
2
Properties=species:S:1:pos:R:3:forces:R:3 energy=122.70457779783528 pbc="F F F"
Be       0.00000000       0.00000000       0.00000000       0.00000000       0.00000000   -1013.58587646
Be       0.00000000       0.00000000       0.23878788       0.00000000       0.00000000    1013.58587646
2
Properties=species:S:1:pos:R:3:forces:R:3 energy=80.44362199045624 pbc="F F F"
Be       0.00000000       0.00000000       0.00000000       0.00000000       0.00000000    -498.57171631
Be       0.00000000       0.00000000       0.29757576       0.00000000       0.00000000     498.57171631
2
Properties=species:S:1:pos:R:3:forces:R:3 energy=58.59773958418822 pbc="F F F"
Be       0.00000000       0.00000000       0.00000000       0.00000000       0.00000000    -273.55554199
Be       0.00000000       0.00000000       0.35636364       0.00000000       0.00000000     273.55554199
2
Properties=species:S:1:pos:R:3:forces:R:3 energy=45.989718827060095 pbc="F F F"
Be       0.00000000       0.00000000       0.00000000       0.00000000       0.00000000    -168.43830872
Be       0.00000000       0.00000000       0.41515152       0.00000000       0.00000000     168.43830872
2
Properties=species:S:1:pos:R:3:forces:R:3 energy=37.70298333674164 pbc="F F F"
Be       0.00000000       0.00000000       0.00000000       0.00000000       0.00000000    -119.94116974
Be       0.00000000       0.00000000       0.47393939       0.00000000       0.00000000     119.94116974
2
Properties=species:S:1:pos:R:3:forces:R:3 energy=31.355456871979865 pbc="F F F"
Be       0.00000000       0.00000000       0.00000000       0.00000000       0.00000000     -98.93129730
Be       0.00000000       0.00000000       0.53272727       0.00000000       0.00000000      98.93129730
2
Properties=species:S:1:pos:R:3:forces:R:3 energy=25.889798833001294 pbc="F F F"
Be       0.00000000       0.00000000       0.00000000       0.00000000       0.00000000     -87.84205627
Be       0.00000000       0.00000000       0.59151515       0.00000000       0.00000000      87.84205627
2
Properties=species:S:1:pos:R:3:forces:R:3 energy=20.832132295191325 pbc="F F F"
Be       0.00000000       0.00000000       0.00000000       0.00000000       0.00000000     -85.16826630
Be       0.00000000       0.00000000       0.65030303       0.00000000       0.00000000      85.16826630
2
Properties=species:S:1:pos:R:3:forces:R:3 energy=16.059318884668556 pbc="F F F"
Be       0.00000000       0.00000000       0.00000000       0.00000000       0.00000000     -74.56463623
Be       0.00000000       0.00000000       0.70909091       0.00000000       0.00000000      74.56463623
2
Properties=species:S:1:pos:R:3:forces:R:3 energy=12.255754442218242 pbc="F F F"
Be       0.00000000       0.00000000       0.00000000       0.00000000       0.00000000     -54.34750748
Be       0.00000000       0.00000000       0.76787879       0.00000000       0.00000000      54.34750748
2
Properties=species:S:1:pos:R:3:forces:R:3 energy=9.717998387172848 pbc="F F F"
Be       0.00000000       0.00000000       0.00000000       0.00000000       0.00000000     -31.71409035
Be       0.00000000       0.00000000       0.82666667       0.00000000       0.00000000      31.71409035
2
Properties=species:S:1:pos:R:3:forces:R:3 energy=8.461972400943798 pbc="F F F"
Be       0.00000000       0.00000000       0.00000000       0.00000000       0.00000000     -12.12171936
Be       0.00000000       0.00000000       0.88545455       0.00000000       0.00000000      12.12171936
2
Properties=species:S:1:pos:R:3:forces:R:3 energy=8.072405804885092 pbc="F F F"
Be       0.00000000       0.00000000       0.00000000       0.00000000       0.00000000      -3.71222830
Be       0.00000000       0.00000000       0.94424242       0.00000000       0.00000000       3.71222830
2
Properties=species:S:1:pos:R:3:forces:R:3 energy=7.779477577724359 pbc="F F F"
Be       0.00000000       0.00000000       0.00000000       0.00000000       0.00000000      -7.33801270
Be       0.00000000       0.00000000       1.00303030       0.00000000       0.00000000       7.33801270
2
Properties=species:S:1:pos:R:3:forces:R:3 energy=7.1776717587495815 pbc="F F F"
Be       0.00000000       0.00000000       0.00000000       0.00000000       0.00000000     -12.92498302
Be       0.00000000       0.00000000       1.06181818       0.00000000       0.00000000      12.92498302
2
Properties=species:S:1:pos:R:3:forces:R:3 energy=6.307839212219394 pbc="F F F"
Be       0.00000000       0.00000000       0.00000000       0.00000000       0.00000000     -16.15833092
Be       0.00000000       0.00000000       1.12060606       0.00000000       0.00000000      16.15833092
2
Properties=species:S:1:pos:R:3:forces:R:3 energy=5.332719471613376 pbc="F F F"
Be       0.00000000       0.00000000       0.00000000       0.00000000       0.00000000     -16.66991806
Be       0.00000000       0.00000000       1.17939394       0.00000000       0.00000000      16.66991806
2
Properties=species:S:1:pos:R:3:forces:R:3 energy=4.370630454610863 pbc="F F F"
Be       0.00000000       0.00000000       0.00000000       0.00000000       0.00000000     -15.98639774
Be       0.00000000       0.00000000       1.23818182       0.00000000       0.00000000      15.98639774
2
Properties=species:S:1:pos:R:3:forces:R:3 energy=3.456507046232836 pbc="F F F"
Be       0.00000000       0.00000000       0.00000000       0.00000000       0.00000000     -15.08979321
Be       0.00000000       0.00000000       1.29696970       0.00000000       0.00000000      15.08979321
2
Properties=species:S:1:pos:R:3:forces:R:3 energy=2.6014568836477125 pbc="F F F"
Be       0.00000000       0.00000000       0.00000000       0.00000000       0.00000000     -13.93876553
Be       0.00000000       0.00000000       1.35575758       0.00000000       0.00000000      13.93876553
2
Properties=species:S:1:pos:R:3:forces:R:3 energy=1.8251435406708798 pbc="F F F"
Be       0.00000000       0.00000000       0.00000000       0.00000000       0.00000000     -12.41627789
Be       0.00000000       0.00000000       1.41454545       0.00000000       0.00000000      12.41627789
2
Properties=species:S:1:pos:R:3:forces:R:3 energy=1.1460757548770002 pbc="F F F"
Be       0.00000000       0.00000000       0.00000000       0.00000000       0.00000000     -10.66621113
Be       0.00000000       0.00000000       1.47333333       0.00000000       0.00000000      10.66621113
2
Properties=species:S:1:pos:R:3:forces:R:3 energy=0.5717926440232065 pbc="F F F"
Be       0.00000000       0.00000000       0.00000000       0.00000000       0.00000000      -8.87448978
Be       0.00000000       0.00000000       1.53212121       0.00000000       0.00000000       8.87448978
2
Properties=species:S:1:pos:R:3:forces:R:3 energy=0.10159173015299389 pbc="F F F"
Be       0.00000000       0.00000000       0.00000000       0.00000000       0.00000000      -7.13649225
Be       0.00000000       0.00000000       1.59090909       0.00000000       0.00000000       7.13649225
2
Properties=species:S:1:pos:R:3:forces:R:3 energy=-0.2697876492878925 pbc="F F F"
Be       0.00000000       0.00000000       0.00000000       0.00000000       0.00000000      -5.52678680
Be       0.00000000       0.00000000       1.64969697       0.00000000       0.00000000       5.52678680
2
Properties=species:S:1:pos:R:3:forces:R:3 energy=-0.5524001492655599 pbc="F F F"
Be       0.00000000       0.00000000       0.00000000       0.00000000       0.00000000      -4.12879324
Be       0.00000000       0.00000000       1.70848485       0.00000000       0.00000000       4.12879324
2
Properties=species:S:1:pos:R:3:forces:R:3 energy=-0.7603256520408235 pbc="F F F"
Be       0.00000000       0.00000000       0.00000000       0.00000000       0.00000000      -2.98853612
Be       0.00000000       0.00000000       1.76727273       0.00000000       0.00000000       2.98853612
2
Properties=species:S:1:pos:R:3:forces:R:3 energy=-0.9086360961304971 pbc="F F F"
Be       0.00000000       0.00000000       0.00000000       0.00000000       0.00000000      -2.09486580
Be       0.00000000       0.00000000       1.82606061       0.00000000       0.00000000       2.09486580
2
Properties=species:S:1:pos:R:3:forces:R:3 energy=-1.0105561652521047 pbc="F F F"
Be       0.00000000       0.00000000       0.00000000       0.00000000       0.00000000      -1.40134597
Be       0.00000000       0.00000000       1.88484848       0.00000000       0.00000000       1.40134597
2
Properties=species:S:1:pos:R:3:forces:R:3 energy=-1.0762862582365875 pbc="F F F"
Be       0.00000000       0.00000000       0.00000000       0.00000000       0.00000000      -0.85547727
Be       0.00000000       0.00000000       1.94363636       0.00000000       0.00000000       0.85547727
2
Properties=species:S:1:pos:R:3:forces:R:3 energy=-1.113208061872521 pbc="F F F"
Be       0.00000000       0.00000000       0.00000000       0.00000000       0.00000000      -0.41594255
Be       0.00000000       0.00000000       2.00242424       0.00000000       0.00000000       0.41594255
2
Properties=species:S:1:pos:R:3:forces:R:3 energy=-1.1268208810310512 pbc="F F F"
Be       0.00000000       0.00000000       0.00000000       0.00000000       0.00000000      -0.06001397
Be       0.00000000       0.00000000       2.06121212       0.00000000       0.00000000       0.06001397
2
Properties=species:S:1:pos:R:3:forces:R:3 energy=-1.1217132384936366 pbc="F F F"
Be       0.00000000       0.00000000       0.00000000       0.00000000       0.00000000       0.22180429
Be       0.00000000       0.00000000       2.12000000       0.00000000       0.00000000      -0.22180429
2
Properties=species:S:1:pos:R:3:forces:R:3 energy=-1.102121268992437 pbc="F F F"
Be       0.00000000       0.00000000       0.00000000       0.00000000       0.00000000       0.43322444
Be       0.00000000       0.00000000       2.17878788       0.00000000       0.00000000      -0.43322444
2
Properties=species:S:1:pos:R:3:forces:R:3 energy=-1.07209254328792 pbc="F F F"
Be       0.00000000       0.00000000       0.00000000       0.00000000       0.00000000       0.57753789
Be       0.00000000       0.00000000       2.23757576       0.00000000       0.00000000      -0.57753789
2
Properties=species:S:1:pos:R:3:forces:R:3 energy=-1.0354358238778771 pbc="F F F"
Be       0.00000000       0.00000000       0.00000000       0.00000000       0.00000000       0.65968937
Be       0.00000000       0.00000000       2.29636364       0.00000000       0.00000000      -0.65968937
2
Properties=species:S:1:pos:R:3:forces:R:3 energy=-0.9956210273879066 pbc="F F F"
Be       0.00000000       0.00000000       0.00000000       0.00000000       0.00000000       0.68620598
Be       0.00000000       0.00000000       2.35515152       0.00000000       0.00000000      -0.68620598
2
Properties=species:S:1:pos:R:3:forces:R:3 energy=-0.9556511515398745 pbc="F F F"
Be       0.00000000       0.00000000       0.00000000       0.00000000       0.00000000       0.66742438
Be       0.00000000       0.00000000       2.41393939       0.00000000       0.00000000      -0.66742438
2
Properties=species:S:1:pos:R:3:forces:R:3 energy=-0.9175758485778941 pbc="F F F"
Be       0.00000000       0.00000000       0.00000000       0.00000000       0.00000000       0.62752748
Be       0.00000000       0.00000000       2.47272727       0.00000000       0.00000000      -0.62752748
2
Properties=species:S:1:pos:R:3:forces:R:3 energy=-0.8815334438196291 pbc="F F F"
Be       0.00000000       0.00000000       0.00000000       0.00000000       0.00000000       0.60370713
Be       0.00000000       0.00000000       2.53151515       0.00000000       0.00000000      -0.60370713
2
Properties=species:S:1:pos:R:3:forces:R:3 energy=-0.8460367402091683 pbc="F F F"
Be       0.00000000       0.00000000       0.00000000       0.00000000       0.00000000       0.60699046
Be       0.00000000       0.00000000       2.59030303       0.00000000       0.00000000      -0.60699046
2
Properties=species:S:1:pos:R:3:forces:R:3 energy=-0.8100688170905701 pbc="F F F"
Be       0.00000000       0.00000000       0.00000000       0.00000000       0.00000000       0.61570978
Be       0.00000000       0.00000000       2.64909091       0.00000000       0.00000000      -0.61570978
2
Properties=species:S:1:pos:R:3:forces:R:3 energy=-0.7738434489086439 pbc="F F F"
Be       0.00000000       0.00000000       0.00000000       0.00000000       0.00000000       0.61477816
Be       0.00000000       0.00000000       2.70787879       0.00000000       0.00000000      -0.61477816
2
Properties=species:S:1:pos:R:3:forces:R:3 energy=-0.737983614228984 pbc="F F F"
Be       0.00000000       0.00000000       0.00000000       0.00000000       0.00000000       0.60386759
Be       0.00000000       0.00000000       2.76666667       0.00000000       0.00000000      -0.60386759
2
Properties=species:S:1:pos:R:3:forces:R:3 energy=-0.7029525932207491 pbc="F F F"
Be       0.00000000       0.00000000       0.00000000       0.00000000       0.00000000       0.58731985
Be       0.00000000       0.00000000       2.82545455       0.00000000       0.00000000      -0.58731985
2
Properties=species:S:1:pos:R:3:forces:R:3 energy=-0.6689695554798742 pbc="F F F"
Be       0.00000000       0.00000000       0.00000000       0.00000000       0.00000000       0.56862843
Be       0.00000000       0.00000000       2.88424242       0.00000000       0.00000000      -0.56862843
2
Properties=species:S:1:pos:R:3:forces:R:3 energy=-0.6361094581190169 pbc="F F F"
Be       0.00000000       0.00000000       0.00000000       0.00000000       0.00000000       0.54919994
Be       0.00000000       0.00000000       2.94303030       0.00000000       0.00000000      -0.54919994
2
Properties=species:S:1:pos:R:3:forces:R:3 energy=-0.604414215901557 pbc="F F F"
Be       0.00000000       0.00000000       0.00000000       0.00000000       0.00000000       0.52887768
Be       0.00000000       0.00000000       3.00181818       0.00000000       0.00000000      -0.52887768
2
Properties=species:S:1:pos:R:3:forces:R:3 energy=-0.5739575954971191 pbc="F F F"
Be       0.00000000       0.00000000       0.00000000       0.00000000       0.00000000       0.50695711
Be       0.00000000       0.00000000       3.06060606       0.00000000       0.00000000      -0.50695711
2
Properties=species:S:1:pos:R:3:forces:R:3 energy=-0.5448488166332005 pbc="F F F"
Be       0.00000000       0.00000000       0.00000000       0.00000000       0.00000000       0.48300701
Be       0.00000000       0.00000000       3.11939394       0.00000000       0.00000000      -0.48300701
2
Properties=species:S:1:pos:R:3:forces:R:3 energy=-0.5172036908770269 pbc="F F F"
Be       0.00000000       0.00000000       0.00000000       0.00000000       0.00000000       0.45723525
Be       0.00000000       0.00000000       3.17818182       0.00000000       0.00000000      -0.45723525
2
Properties=species:S:1:pos:R:3:forces:R:3 energy=-0.491108314475952 pbc="F F F"
Be       0.00000000       0.00000000       0.00000000       0.00000000       0.00000000       0.43049017
Be       0.00000000       0.00000000       3.23696970       0.00000000       0.00000000      -0.43049017
2
Properties=species:S:1:pos:R:3:forces:R:3 energy=-0.4665831433200498 pbc="F F F"
Be       0.00000000       0.00000000       0.00000000       0.00000000       0.00000000       0.40403220
Be       0.00000000       0.00000000       3.29575758       0.00000000       0.00000000      -0.40403220
2
Properties=species:S:1:pos:R:3:forces:R:3 energy=-0.4435708990031067 pbc="F F F"
Be       0.00000000       0.00000000       0.00000000       0.00000000       0.00000000       0.37923804
Be       0.00000000       0.00000000       3.35454545       0.00000000       0.00000000      -0.37923804
2
Properties=species:S:1:pos:R:3:forces:R:3 energy=-0.42193769577126694 pbc="F F F"
Be       0.00000000       0.00000000       0.00000000       0.00000000       0.00000000       0.35729665
Be       0.00000000       0.00000000       3.41333333       0.00000000       0.00000000      -0.35729665
2
Properties=species:S:1:pos:R:3:forces:R:3 energy=-0.401490352256576 pbc="F F F"
Be       0.00000000       0.00000000       0.00000000       0.00000000       0.00000000       0.33896801
Be       0.00000000       0.00000000       3.47212121       0.00000000       0.00000000      -0.33896801
2
Properties=species:S:1:pos:R:3:forces:R:3 energy=-0.3820082639988533 pbc="F F F"
Be       0.00000000       0.00000000       0.00000000       0.00000000       0.00000000       0.32446086
Be       0.00000000       0.00000000       3.53090909       0.00000000       0.00000000      -0.32446086
2
Properties=species:S:1:pos:R:3:forces:R:3 energy=-0.3632734664853855 pbc="F F F"
Be       0.00000000       0.00000000       0.00000000       0.00000000       0.00000000       0.31342122
Be       0.00000000       0.00000000       3.58969697       0.00000000       0.00000000      -0.31342122
2
Properties=species:S:1:pos:R:3:forces:R:3 energy=-0.3451048818951187 pbc="F F F"
Be       0.00000000       0.00000000       0.00000000       0.00000000       0.00000000       0.30505249
Be       0.00000000       0.00000000       3.64848485       0.00000000       0.00000000      -0.30505249
2
Properties=species:S:1:pos:R:3:forces:R:3 energy=-0.32737535864743905 pbc="F F F"
Be       0.00000000       0.00000000       0.00000000       0.00000000       0.00000000       0.29828468
Be       0.00000000       0.00000000       3.70727273       0.00000000       0.00000000      -0.29828468
2
Properties=species:S:1:pos:R:3:forces:R:3 energy=-0.31002462486496385 pbc="F F F"
Be       0.00000000       0.00000000       0.00000000       0.00000000       0.00000000       0.29197174
Be       0.00000000       0.00000000       3.76606061       0.00000000       0.00000000      -0.29197174
2
Properties=species:S:1:pos:R:3:forces:R:3 energy=-0.29305834503460965 pbc="F F F"
Be       0.00000000       0.00000000       0.00000000       0.00000000       0.00000000       0.28506047
Be       0.00000000       0.00000000       3.82484848       0.00000000       0.00000000      -0.28506047
2
Properties=species:S:1:pos:R:3:forces:R:3 energy=-0.276536933589249 pbc="F F F"
Be       0.00000000       0.00000000       0.00000000       0.00000000       0.00000000       0.27670866
Be       0.00000000       0.00000000       3.88363636       0.00000000       0.00000000      -0.27670866
2
Properties=species:S:1:pos:R:3:forces:R:3 energy=-0.26056346737610514 pbc="F F F"
Be       0.00000000       0.00000000       0.00000000       0.00000000       0.00000000       0.26636183
Be       0.00000000       0.00000000       3.94242424       0.00000000       0.00000000      -0.26636183
2
Properties=species:S:1:pos:R:3:forces:R:3 energy=-0.24526373289588138 pbc="F F F"
Be       0.00000000       0.00000000       0.00000000       0.00000000       0.00000000       0.25376934
Be       0.00000000       0.00000000       4.00121212       0.00000000       0.00000000      -0.25376934
2
Properties=species:S:1:pos:R:3:forces:R:3 energy=-0.230769801117354 pbc="F F F"
Be       0.00000000       0.00000000       0.00000000       0.00000000       0.00000000       0.23896940
Be       0.00000000       0.00000000       4.06000000       0.00000000       0.00000000      -0.23896940
2
Properties=species:S:1:pos:R:3:forces:R:3 energy=-0.21720449144188647 pbc="F F F"
Be       0.00000000       0.00000000       0.00000000       0.00000000       0.00000000       0.22224684
Be       0.00000000       0.00000000       4.11878788       0.00000000       0.00000000      -0.22224684
2
Properties=species:S:1:pos:R:3:forces:R:3 energy=-0.2046674140051382 pbc="F F F"
Be       0.00000000       0.00000000       0.00000000       0.00000000       0.00000000       0.20407049
Be       0.00000000       0.00000000       4.17757576       0.00000000       0.00000000      -0.20407049
2
Properties=species:S:1:pos:R:3:forces:R:3 energy=-0.19322749979754697 pbc="F F F"
Be       0.00000000       0.00000000       0.00000000       0.00000000       0.00000000       0.18502876
Be       0.00000000       0.00000000       4.23636364       0.00000000       0.00000000      -0.18502876
2
Properties=species:S:1:pos:R:3:forces:R:3 energy=-0.18291650686388503 pbc="F F F"
Be       0.00000000       0.00000000       0.00000000       0.00000000       0.00000000       0.16577430
Be       0.00000000       0.00000000       4.29515152       0.00000000       0.00000000      -0.16577430
2
Properties=species:S:1:pos:R:3:forces:R:3 energy=-0.17372752595739693 pbc="F F F"
Be       0.00000000       0.00000000       0.00000000       0.00000000       0.00000000       0.14697973
Be       0.00000000       0.00000000       4.35393939       0.00000000       0.00000000      -0.14697973
2
Properties=species:S:1:pos:R:3:forces:R:3 energy=-0.1656135297294691 pbc="F F F"
Be       0.00000000       0.00000000       0.00000000       0.00000000       0.00000000       0.12930147
Be       0.00000000       0.00000000       4.41272727       0.00000000       0.00000000      -0.12930147
2
Properties=species:S:1:pos:R:3:forces:R:3 energy=-0.1584908625832148 pbc="F F F"
Be       0.00000000       0.00000000       0.00000000       0.00000000       0.00000000       0.11334838
Be       0.00000000       0.00000000       4.47151515       0.00000000       0.00000000      -0.11334838
2
Properties=species:S:1:pos:R:3:forces:R:3 energy=-0.1522424307519071 pbc="F F F"
Be       0.00000000       0.00000000       0.00000000       0.00000000       0.00000000       0.09962960
Be       0.00000000       0.00000000       4.53030303       0.00000000       0.00000000      -0.09962960
2
Properties=species:S:1:pos:R:3:forces:R:3 energy=-0.14672609563453193 pbc="F F F"
Be       0.00000000       0.00000000       0.00000000       0.00000000       0.00000000       0.08849483
Be       0.00000000       0.00000000       4.58909091       0.00000000       0.00000000      -0.08849483
2
Properties=species:S:1:pos:R:3:forces:R:3 energy=-0.1417844085898217 pbc="F F F"
Be       0.00000000       0.00000000       0.00000000       0.00000000       0.00000000       0.08007679
Be       0.00000000       0.00000000       4.64787879       0.00000000       0.00000000      -0.08007679
2
Properties=species:S:1:pos:R:3:forces:R:3 energy=-0.1372598766449382 pbc="F F F"
Be       0.00000000       0.00000000       0.00000000       0.00000000       0.00000000       0.07425583
Be       0.00000000       0.00000000       4.70666667       0.00000000       0.00000000      -0.07425583
2
Properties=species:S:1:pos:R:3:forces:R:3 energy=-0.13300979806138113 pbc="F F F"
Be       0.00000000       0.00000000       0.00000000       0.00000000       0.00000000       0.07066921
Be       0.00000000       0.00000000       4.76545455       0.00000000       0.00000000      -0.07066921
2
Properties=species:S:1:pos:R:3:forces:R:3 energy=-0.12891789867297077 pbc="F F F"
Be       0.00000000       0.00000000       0.00000000       0.00000000       0.00000000       0.06875397
Be       0.00000000       0.00000000       4.82424242       0.00000000       0.00000000      -0.06875397
2
Properties=species:S:1:pos:R:3:forces:R:3 energy=-0.12490674460613814 pbc="F F F"
Be       0.00000000       0.00000000       0.00000000       0.00000000       0.00000000       0.06782788
Be       0.00000000       0.00000000       4.88303030       0.00000000       0.00000000      -0.06782788
2
Properties=species:S:1:pos:R:3:forces:R:3 energy=-0.12093786735588408 pbc="F F F"
Be       0.00000000       0.00000000       0.00000000       0.00000000       0.00000000       0.06717552
Be       0.00000000       0.00000000       4.94181818       0.00000000       0.00000000      -0.06717552
2
Properties=species:S:1:pos:R:3:forces:R:3 energy=-0.11701548203248643 pbc="F F F"
Be       0.00000000       0.00000000       0.00000000       0.00000000       0.00000000       0.06616603
Be       0.00000000       0.00000000       5.00060606       0.00000000       0.00000000      -0.06616603
2
Properties=species:S:1:pos:R:3:forces:R:3 energy=-0.1131737147744988 pbc="F F F"
Be       0.00000000       0.00000000       0.00000000       0.00000000       0.00000000       0.06437803
Be       0.00000000       0.00000000       5.05939394       0.00000000       0.00000000      -0.06437803
2
Properties=species:S:1:pos:R:3:forces:R:3 energy=-0.10946294079079516 pbc="F F F"
Be       0.00000000       0.00000000       0.00000000       0.00000000       0.00000000       0.06175368
Be       0.00000000       0.00000000       5.11818182       0.00000000       0.00000000      -0.06175368
2
Properties=species:S:1:pos:R:3:forces:R:3 energy=-0.10592136414739076 pbc="F F F"
Be       0.00000000       0.00000000       0.00000000       0.00000000       0.00000000       0.05872975
Be       0.00000000       0.00000000       5.17696970       0.00000000       0.00000000      -0.05872975
2
Properties=species:S:1:pos:R:3:forces:R:3 energy=-0.10254763796769198 pbc="F F F"
Be       0.00000000       0.00000000       0.00000000       0.00000000       0.00000000       0.05623125
Be       0.00000000       0.00000000       5.23575758       0.00000000       0.00000000      -0.05623125
2
Properties=species:S:1:pos:R:3:forces:R:3 energy=-0.09928051628191739 pbc="F F F"
Be       0.00000000       0.00000000       0.00000000       0.00000000       0.00000000       0.05519085
Be       0.00000000       0.00000000       5.29454545       0.00000000       0.00000000      -0.05519085
2
Properties=species:S:1:pos:R:3:forces:R:3 energy=-0.09604089665347111 pbc="F F F"
Be       0.00000000       0.00000000       0.00000000       0.00000000       0.00000000       0.05489689
Be       0.00000000       0.00000000       5.35333333       0.00000000       0.00000000      -0.05489689
2
Properties=species:S:1:pos:R:3:forces:R:3 energy=-0.09289959285279185 pbc="F F F"
Be       0.00000000       0.00000000       0.00000000       0.00000000       0.00000000       0.05078473
Be       0.00000000       0.00000000       5.41212121       0.00000000       0.00000000      -0.05078473
2
Properties=species:S:1:pos:R:3:forces:R:3 energy=-0.09024536081994958 pbc="F F F"
Be       0.00000000       0.00000000       0.00000000       0.00000000       0.00000000       0.03817026
Be       0.00000000       0.00000000       5.47090909       0.00000000       0.00000000      -0.03817026
2
Properties=species:S:1:pos:R:3:forces:R:3 energy=-0.08846943806034353 pbc="F F F"
Be       0.00000000       0.00000000       0.00000000       0.00000000       0.00000000       0.02270522
Be       0.00000000       0.00000000       5.52969697       0.00000000       0.00000000      -0.02270522
2
Properties=species:S:1:pos:R:3:forces:R:3 energy=-0.08746551124518988 pbc="F F F"
Be       0.00000000       0.00000000       0.00000000       0.00000000       0.00000000       0.01239049
Be       0.00000000       0.00000000       5.58848485       0.00000000       0.00000000      -0.01239049
2
Properties=species:S:1:pos:R:3:forces:R:3 energy=-0.08695407201710077 pbc="F F F"
Be       0.00000000       0.00000000       0.00000000       0.00000000       0.00000000       0.00497857
Be       0.00000000       0.00000000       5.64727273       0.00000000       0.00000000      -0.00497857
2
Properties=species:S:1:pos:R:3:forces:R:3 energy=-0.08693391900643575 pbc="F F F"
Be       0.00000000       0.00000000       0.00000000       0.00000000       0.00000000      -0.00488686
Be       0.00000000       0.00000000       5.70606061       0.00000000       0.00000000       0.00488686
2
Properties=species:S:1:pos:R:3:forces:R:3 energy=-0.08753961577218505 pbc="F F F"
Be       0.00000000       0.00000000       0.00000000       0.00000000       0.00000000      -0.01481852
Be       0.00000000       0.00000000       5.76484848       0.00000000       0.00000000       0.01481852
2
Properties=species:S:1:pos:R:3:forces:R:3 energy=-0.08848145754298285 pbc="F F F"
Be       0.00000000       0.00000000       0.00000000       0.00000000       0.00000000      -0.01529141
Be       0.00000000       0.00000000       5.82363636       0.00000000       0.00000000       0.01529141
2
Properties=species:S:1:pos:R:3:forces:R:3 energy=-0.08915976186253373 pbc="F F F"
Be       0.00000000       0.00000000       0.00000000       0.00000000       0.00000000      -0.00721054
Be       0.00000000       0.00000000       5.88242424       0.00000000       0.00000000       0.00721054
2
Properties=species:S:1:pos:R:3:forces:R:3 energy=-0.08932965377097303 pbc="F F F"
Be       0.00000000       0.00000000       0.00000000       0.00000000       0.00000000       0.00094165
Be       0.00000000       0.00000000       5.94121212       0.00000000       0.00000000      -0.00094165
2
Properties=species:S:1:pos:R:3:forces:R:3 energy=-0.08915346480025554 pbc="F F F"
Be       0.00000000       0.00000000       0.00000000       0.00000000       0.00000000       0.00395837
Be       0.00000000       0.00000000       6.00000000       0.00000000       0.00000000      -0.00395837
