2
Properties=species:S:1:pos:R:3:forces:R:3 energy=17386.571867494942 pbc="F F F"
Bi       0.00000000       0.00000000       0.00000000       0.00000000       0.00000000 -307246.50000000
Bi       0.00000000       0.00000000       0.18000000       0.00000000       0.00000000  307246.50000000
2
Properties=species:S:1:pos:R:3:forces:R:3 energy=6709.488859682441 pbc="F F F"
Bi       0.00000000       0.00000000       0.00000000       0.00000000       0.00000000 -100207.54687500
Bi       0.00000000       0.00000000       0.23878788       0.00000000       0.00000000  100207.54687500
2
Properties=species:S:1:pos:R:3:forces:R:3 energy=2957.922697576234 pbc="F F F"
Bi       0.00000000       0.00000000       0.00000000       0.00000000       0.00000000  -38451.20703125
Bi       0.00000000       0.00000000       0.29757576       0.00000000       0.00000000   38451.20703125
2
Properties=species:S:1:pos:R:3:forces:R:3 energy=1448.6197190606092 pbc="F F F"
Bi       0.00000000       0.00000000       0.00000000       0.00000000       0.00000000  -16378.24414062
Bi       0.00000000       0.00000000       0.35636364       0.00000000       0.00000000   16378.24414062
2
Properties=species:S:1:pos:R:3:forces:R:3 energy=781.348784008351 pbc="F F F"
Bi       0.00000000       0.00000000       0.00000000       0.00000000       0.00000000   -7594.46679688
Bi       0.00000000       0.00000000       0.41515152       0.00000000       0.00000000    7594.46679688
2
Properties=species:S:1:pos:R:3:forces:R:3 energy=459.4821458310929 pbc="F F F"
Bi       0.00000000       0.00000000       0.00000000       0.00000000       0.00000000   -3871.71850586
Bi       0.00000000       0.00000000       0.47393939       0.00000000       0.00000000    3871.71850586
2
Properties=species:S:1:pos:R:3:forces:R:3 energy=286.12701279345924 pbc="F F F"
Bi       0.00000000       0.00000000       0.00000000       0.00000000       0.00000000   -2169.46215820
Bi       0.00000000       0.00000000       0.53272727       0.00000000       0.00000000    2169.46215820
2
Properties=species:S:1:pos:R:3:forces:R:3 energy=199.45075854634086 pbc="F F F"
Bi       0.00000000       0.00000000       0.00000000       0.00000000       0.00000000   -1060.45874023
Bi       0.00000000       0.00000000       0.59151515       0.00000000       0.00000000    1060.45874023
2
Properties=species:S:1:pos:R:3:forces:R:3 energy=148.64509452819038 pbc="F F F"
Bi       0.00000000       0.00000000       0.00000000       0.00000000       0.00000000    -711.71954346
Bi       0.00000000       0.00000000       0.65030303       0.00000000       0.00000000     711.71954346
2
Properties=species:S:1:pos:R:3:forces:R:3 energy=112.00315735152655 pbc="F F F"
Bi       0.00000000       0.00000000       0.00000000       0.00000000       0.00000000    -520.01293945
Bi       0.00000000       0.00000000       0.70909091       0.00000000       0.00000000     520.01293945
2
Properties=species:S:1:pos:R:3:forces:R:3 energy=93.17034038476362 pbc="F F F"
Bi       0.00000000       0.00000000       0.00000000       0.00000000       0.00000000    -134.89247131
Bi       0.00000000       0.00000000       0.76787879       0.00000000       0.00000000     134.89247131
2
Properties=species:S:1:pos:R:3:forces:R:3 energy=90.24211026384583 pbc="F F F"
Bi       0.00000000       0.00000000       0.00000000       0.00000000       0.00000000     -14.06353951
Bi       0.00000000       0.00000000       0.82666667       0.00000000       0.00000000      14.06353951
2
Properties=species:S:1:pos:R:3:forces:R:3 energy=91.58572317233093 pbc="F F F"
Bi       0.00000000       0.00000000       0.00000000       0.00000000       0.00000000      61.16847992
Bi       0.00000000       0.00000000       0.88545455       0.00000000       0.00000000     -61.16847992
2
Properties=species:S:1:pos:R:3:forces:R:3 energy=96.56817590069821 pbc="F F F"
Bi       0.00000000       0.00000000       0.00000000       0.00000000       0.00000000      95.45544434
Bi       0.00000000       0.00000000       0.94424242       0.00000000       0.00000000     -95.45544434
2
Properties=species:S:1:pos:R:3:forces:R:3 energy=97.0791550587629 pbc="F F F"
Bi       0.00000000       0.00000000       0.00000000       0.00000000       0.00000000       5.38679075
Bi       0.00000000       0.00000000       1.00303030       0.00000000       0.00000000      -5.38679075
2
Properties=species:S:1:pos:R:3:forces:R:3 energy=97.41951059908962 pbc="F F F"
Bi       0.00000000       0.00000000       0.00000000       0.00000000       0.00000000       3.05197167
Bi       0.00000000       0.00000000       1.06181818       0.00000000       0.00000000      -3.05197167
2
Properties=species:S:1:pos:R:3:forces:R:3 energy=97.02794037780151 pbc="F F F"
Bi       0.00000000       0.00000000       0.00000000       0.00000000       0.00000000     -20.65821838
Bi       0.00000000       0.00000000       1.12060606       0.00000000       0.00000000      20.65821838
2
Properties=species:S:1:pos:R:3:forces:R:3 energy=94.48924516896636 pbc="F F F"
Bi       0.00000000       0.00000000       0.00000000       0.00000000       0.00000000     -69.12531281
Bi       0.00000000       0.00000000       1.17939394       0.00000000       0.00000000      69.12531281
2
Properties=species:S:1:pos:R:3:forces:R:3 energy=88.71659489361265 pbc="F F F"
Bi       0.00000000       0.00000000       0.00000000       0.00000000       0.00000000    -126.75649261
Bi       0.00000000       0.00000000       1.23818182       0.00000000       0.00000000     126.75649261
2
Properties=species:S:1:pos:R:3:forces:R:3 energy=79.77393157699886 pbc="F F F"
Bi       0.00000000       0.00000000       0.00000000       0.00000000       0.00000000    -175.98733521
Bi       0.00000000       0.00000000       1.29696970       0.00000000       0.00000000     175.98733521
2
Properties=species:S:1:pos:R:3:forces:R:3 energy=68.25757641378105 pbc="F F F"
Bi       0.00000000       0.00000000       0.00000000       0.00000000       0.00000000    -209.90237427
Bi       0.00000000       0.00000000       1.35575758       0.00000000       0.00000000     209.90237427
2
Properties=species:S:1:pos:R:3:forces:R:3 energy=56.41110936032801 pbc="F F F"
Bi       0.00000000       0.00000000       0.00000000       0.00000000       0.00000000    -184.00096130
Bi       0.00000000       0.00000000       1.41454545       0.00000000       0.00000000     184.00096130
2
Properties=species:S:1:pos:R:3:forces:R:3 energy=46.66831883974537 pbc="F F F"
Bi       0.00000000       0.00000000       0.00000000       0.00000000       0.00000000    -151.25930786
Bi       0.00000000       0.00000000       1.47333333       0.00000000       0.00000000     151.25930786
2
Properties=species:S:1:pos:R:3:forces:R:3 energy=38.347674970463224 pbc="F F F"
Bi       0.00000000       0.00000000       0.00000000       0.00000000       0.00000000    -132.65664673
Bi       0.00000000       0.00000000       1.53212121       0.00000000       0.00000000     132.65664673
2
Properties=species:S:1:pos:R:3:forces:R:3 energy=31.03173750594745 pbc="F F F"
Bi       0.00000000       0.00000000       0.00000000       0.00000000       0.00000000    -116.51731110
Bi       0.00000000       0.00000000       1.59090909       0.00000000       0.00000000     116.51731110
2
Properties=species:S:1:pos:R:3:forces:R:3 energy=24.57952684091127 pbc="F F F"
Bi       0.00000000       0.00000000       0.00000000       0.00000000       0.00000000    -103.66613007
Bi       0.00000000       0.00000000       1.64969697       0.00000000       0.00000000     103.66613007
2
Properties=species:S:1:pos:R:3:forces:R:3 energy=18.834795072772653 pbc="F F F"
Bi       0.00000000       0.00000000       0.00000000       0.00000000       0.00000000     -91.26670074
Bi       0.00000000       0.00000000       1.70848485       0.00000000       0.00000000      91.26670074
2
Properties=species:S:1:pos:R:3:forces:R:3 energy=13.897867063519914 pbc="F F F"
Bi       0.00000000       0.00000000       0.00000000       0.00000000       0.00000000     -76.62630463
Bi       0.00000000       0.00000000       1.76727273       0.00000000       0.00000000      76.62630463
2
Properties=species:S:1:pos:R:3:forces:R:3 energy=9.799392235920381 pbc="F F F"
Bi       0.00000000       0.00000000       0.00000000       0.00000000       0.00000000     -63.16073608
Bi       0.00000000       0.00000000       1.82606061       0.00000000       0.00000000      63.16073608
2
Properties=species:S:1:pos:R:3:forces:R:3 energy=6.432385309245623 pbc="F F F"
Bi       0.00000000       0.00000000       0.00000000       0.00000000       0.00000000     -51.66296387
Bi       0.00000000       0.00000000       1.88484848       0.00000000       0.00000000      51.66296387
2
Properties=species:S:1:pos:R:3:forces:R:3 energy=3.6986152783294184 pbc="F F F"
Bi       0.00000000       0.00000000       0.00000000       0.00000000       0.00000000     -41.54139328
Bi       0.00000000       0.00000000       1.94363636       0.00000000       0.00000000      41.54139328
2
Properties=species:S:1:pos:R:3:forces:R:3 energy=1.5235046832520769 pbc="F F F"
Bi       0.00000000       0.00000000       0.00000000       0.00000000       0.00000000     -32.68904495
Bi       0.00000000       0.00000000       2.00242424       0.00000000       0.00000000      32.68904495
2
Properties=species:S:1:pos:R:3:forces:R:3 energy=-0.17494824610980483 pbc="F F F"
Bi       0.00000000       0.00000000       0.00000000       0.00000000       0.00000000     -25.36527252
Bi       0.00000000       0.00000000       2.06121212       0.00000000       0.00000000      25.36527252
2
Properties=species:S:1:pos:R:3:forces:R:3 energy=-1.4904831940648486 pbc="F F F"
Bi       0.00000000       0.00000000       0.00000000       0.00000000       0.00000000     -19.64521980
Bi       0.00000000       0.00000000       2.12000000       0.00000000       0.00000000      19.64521980
2
Properties=species:S:1:pos:R:3:forces:R:3 energy=-2.511593638157615 pbc="F F F"
Bi       0.00000000       0.00000000       0.00000000       0.00000000       0.00000000     -15.29110336
Bi       0.00000000       0.00000000       2.17878788       0.00000000       0.00000000      15.29110336
2
Properties=species:S:1:pos:R:3:forces:R:3 energy=-3.3078933342172623 pbc="F F F"
Bi       0.00000000       0.00000000       0.00000000       0.00000000       0.00000000     -11.93628979
Bi       0.00000000       0.00000000       2.23757576       0.00000000       0.00000000      11.93628979
2
Properties=species:S:1:pos:R:3:forces:R:3 energy=-3.9281467784894533 pbc="F F F"
Bi       0.00000000       0.00000000       0.00000000       0.00000000       0.00000000      -9.25539017
Bi       0.00000000       0.00000000       2.29636364       0.00000000       0.00000000       9.25539017
2
Properties=species:S:1:pos:R:3:forces:R:3 energy=-4.404792092445159 pbc="F F F"
Bi       0.00000000       0.00000000       0.00000000       0.00000000       0.00000000      -7.02101183
Bi       0.00000000       0.00000000       2.35515152       0.00000000       0.00000000       7.02101183
2
Properties=species:S:1:pos:R:3:forces:R:3 energy=-4.7596706232138475 pbc="F F F"
Bi       0.00000000       0.00000000       0.00000000       0.00000000       0.00000000      -5.09614420
Bi       0.00000000       0.00000000       2.41393939       0.00000000       0.00000000       5.09614420
2
Properties=species:S:1:pos:R:3:forces:R:3 energy=-5.008649844986218 pbc="F F F"
Bi       0.00000000       0.00000000       0.00000000       0.00000000       0.00000000      -3.41119885
Bi       0.00000000       0.00000000       2.47272727       0.00000000       0.00000000       3.41119885
2
Properties=species:S:1:pos:R:3:forces:R:3 energy=-5.164941640287741 pbc="F F F"
Bi       0.00000000       0.00000000       0.00000000       0.00000000       0.00000000      -1.94131267
Bi       0.00000000       0.00000000       2.53151515       0.00000000       0.00000000       1.94131267
2
Properties=species:S:1:pos:R:3:forces:R:3 energy=-5.241115102483338 pbc="F F F"
Bi       0.00000000       0.00000000       0.00000000       0.00000000       0.00000000      -0.68665361
Bi       0.00000000       0.00000000       2.59030303       0.00000000       0.00000000       0.68665361
2
Properties=species:S:1:pos:R:3:forces:R:3 energy=-5.250043963693404 pbc="F F F"
Bi       0.00000000       0.00000000       0.00000000       0.00000000       0.00000000       0.34530786
Bi       0.00000000       0.00000000       2.64909091       0.00000000       0.00000000      -0.34530786
2
Properties=species:S:1:pos:R:3:forces:R:3 energy=-5.204906178145265 pbc="F F F"
Bi       0.00000000       0.00000000       0.00000000       0.00000000       0.00000000       1.15360594
Bi       0.00000000       0.00000000       2.70787879       0.00000000       0.00000000      -1.15360594
2
Properties=species:S:1:pos:R:3:forces:R:3 energy=-5.118560162149454 pbc="F F F"
Bi       0.00000000       0.00000000       0.00000000       0.00000000       0.00000000       1.75039208
Bi       0.00000000       0.00000000       2.76666667       0.00000000       0.00000000      -1.75039208
2
Properties=species:S:1:pos:R:3:forces:R:3 energy=-5.002788568380665 pbc="F F F"
Bi       0.00000000       0.00000000       0.00000000       0.00000000       0.00000000       2.15922356
Bi       0.00000000       0.00000000       2.82545455       0.00000000       0.00000000      -2.15922356
2
Properties=species:S:1:pos:R:3:forces:R:3 energy=-4.867809085799478 pbc="F F F"
Bi       0.00000000       0.00000000       0.00000000       0.00000000       0.00000000       2.40871811
Bi       0.00000000       0.00000000       2.88424242       0.00000000       0.00000000      -2.40871811
2
Properties=species:S:1:pos:R:3:forces:R:3 energy=-4.722145210446847 pbc="F F F"
Bi       0.00000000       0.00000000       0.00000000       0.00000000       0.00000000       2.52734971
Bi       0.00000000       0.00000000       2.94303030       0.00000000       0.00000000      -2.52734971
2
Properties=species:S:1:pos:R:3:forces:R:3 energy=-4.5726858564245125 pbc="F F F"
Bi       0.00000000       0.00000000       0.00000000       0.00000000       0.00000000       2.54231238
Bi       0.00000000       0.00000000       3.00181818       0.00000000       0.00000000      -2.54231238
2
Properties=species:S:1:pos:R:3:forces:R:3 energy=-4.424739260668642 pbc="F F F"
Bi       0.00000000       0.00000000       0.00000000       0.00000000       0.00000000       2.48030925
Bi       0.00000000       0.00000000       3.06060606       0.00000000       0.00000000      -2.48030925
2
Properties=species:S:1:pos:R:3:forces:R:3 energy=-4.282066058943956 pbc="F F F"
Bi       0.00000000       0.00000000       0.00000000       0.00000000       0.00000000       2.36700773
Bi       0.00000000       0.00000000       3.11939394       0.00000000       0.00000000      -2.36700773
2
Properties=species:S:1:pos:R:3:forces:R:3 energy=-4.147001432183963 pbc="F F F"
Bi       0.00000000       0.00000000       0.00000000       0.00000000       0.00000000       2.22465372
Bi       0.00000000       0.00000000       3.17818182       0.00000000       0.00000000      -2.22465372
2
Properties=species:S:1:pos:R:3:forces:R:3 energy=-4.020737471620337 pbc="F F F"
Bi       0.00000000       0.00000000       0.00000000       0.00000000       0.00000000       2.06999397
Bi       0.00000000       0.00000000       3.23696970       0.00000000       0.00000000      -2.06999397
2
Properties=species:S:1:pos:R:3:forces:R:3 energy=-3.9036448187894752 pbc="F F F"
Bi       0.00000000       0.00000000       0.00000000       0.00000000       0.00000000       1.91395533
Bi       0.00000000       0.00000000       3.29575758       0.00000000       0.00000000      -1.91395533
2
Properties=species:S:1:pos:R:3:forces:R:3 energy=-3.7956054691986796 pbc="F F F"
Bi       0.00000000       0.00000000       0.00000000       0.00000000       0.00000000       1.76272142
Bi       0.00000000       0.00000000       3.35454545       0.00000000       0.00000000      -1.76272142
2
Properties=species:S:1:pos:R:3:forces:R:3 energy=-3.6962408342083757 pbc="F F F"
Bi       0.00000000       0.00000000       0.00000000       0.00000000       0.00000000       1.61910295
Bi       0.00000000       0.00000000       3.41333333       0.00000000       0.00000000      -1.61910295
2
Properties=species:S:1:pos:R:3:forces:R:3 energy=-3.605073339135355 pbc="F F F"
Bi       0.00000000       0.00000000       0.00000000       0.00000000       0.00000000       1.48387337
Bi       0.00000000       0.00000000       3.47212121       0.00000000       0.00000000      -1.48387337
2
Properties=species:S:1:pos:R:3:forces:R:3 energy=-3.521610951101764 pbc="F F F"
Bi       0.00000000       0.00000000       0.00000000       0.00000000       0.00000000       1.35695744
Bi       0.00000000       0.00000000       3.53090909       0.00000000       0.00000000      -1.35695744
2
Properties=species:S:1:pos:R:3:forces:R:3 energy=-3.4453669433610212 pbc="F F F"
Bi       0.00000000       0.00000000       0.00000000       0.00000000       0.00000000       1.23826742
Bi       0.00000000       0.00000000       3.58969697       0.00000000       0.00000000      -1.23826742
2
Properties=species:S:1:pos:R:3:forces:R:3 energy=-3.375856749298059 pbc="F F F"
Bi       0.00000000       0.00000000       0.00000000       0.00000000       0.00000000       1.12792957
Bi       0.00000000       0.00000000       3.64848485       0.00000000       0.00000000      -1.12792957
2
Properties=species:S:1:pos:R:3:forces:R:3 energy=-3.312584630573378 pbc="F F F"
Bi       0.00000000       0.00000000       0.00000000       0.00000000       0.00000000       1.02604234
Bi       0.00000000       0.00000000       3.70727273       0.00000000       0.00000000      -1.02604234
2
Properties=species:S:1:pos:R:3:forces:R:3 energy=-3.2550522703382585 pbc="F F F"
Bi       0.00000000       0.00000000       0.00000000       0.00000000       0.00000000       0.93263239
Bi       0.00000000       0.00000000       3.76606061       0.00000000       0.00000000      -0.93263239
2
Properties=species:S:1:pos:R:3:forces:R:3 energy=-3.202761002422449 pbc="F F F"
Bi       0.00000000       0.00000000       0.00000000       0.00000000       0.00000000       0.84784091
Bi       0.00000000       0.00000000       3.82484848       0.00000000       0.00000000      -0.84784091
2
Properties=species:S:1:pos:R:3:forces:R:3 energy=-3.1551940165908854 pbc="F F F"
Bi       0.00000000       0.00000000       0.00000000       0.00000000       0.00000000       0.77187526
Bi       0.00000000       0.00000000       3.88363636       0.00000000       0.00000000      -0.77187526
2
Properties=species:S:1:pos:R:3:forces:R:3 energy=-3.1118314707156745 pbc="F F F"
Bi       0.00000000       0.00000000       0.00000000       0.00000000       0.00000000       0.70481586
Bi       0.00000000       0.00000000       3.94242424       0.00000000       0.00000000      -0.70481586
2
Properties=species:S:1:pos:R:3:forces:R:3 energy=-3.0721568583529772 pbc="F F F"
Bi       0.00000000       0.00000000       0.00000000       0.00000000       0.00000000       0.64635772
Bi       0.00000000       0.00000000       4.00121212       0.00000000       0.00000000      -0.64635772
2
Properties=species:S:1:pos:R:3:forces:R:3 energy=-3.03568268208167 pbc="F F F"
Bi       0.00000000       0.00000000       0.00000000       0.00000000       0.00000000       0.59571761
Bi       0.00000000       0.00000000       4.06000000       0.00000000       0.00000000      -0.59571761
2
Properties=species:S:1:pos:R:3:forces:R:3 energy=-3.0019849116597004 pbc="F F F"
Bi       0.00000000       0.00000000       0.00000000       0.00000000       0.00000000       0.55170381
Bi       0.00000000       0.00000000       4.11878788       0.00000000       0.00000000      -0.55170381
2
Properties=species:S:1:pos:R:3:forces:R:3 energy=-2.970713471945817 pbc="F F F"
Bi       0.00000000       0.00000000       0.00000000       0.00000000       0.00000000       0.51289296
Bi       0.00000000       0.00000000       4.17757576       0.00000000       0.00000000      -0.51289296
2
Properties=species:S:1:pos:R:3:forces:R:3 energy=-2.941605916625937 pbc="F F F"
Bi       0.00000000       0.00000000       0.00000000       0.00000000       0.00000000       0.47788659
Bi       0.00000000       0.00000000       4.23636364       0.00000000       0.00000000      -0.47788659
2
Properties=species:S:1:pos:R:3:forces:R:3 energy=-2.91447348739795 pbc="F F F"
Bi       0.00000000       0.00000000       0.00000000       0.00000000       0.00000000       0.44552487
Bi       0.00000000       0.00000000       4.29515152       0.00000000       0.00000000      -0.44552487
2
Properties=species:S:1:pos:R:3:forces:R:3 energy=-2.8891870591149202 pbc="F F F"
Bi       0.00000000       0.00000000       0.00000000       0.00000000       0.00000000       0.41502482
Bi       0.00000000       0.00000000       4.35393939       0.00000000       0.00000000      -0.41502482
2
Properties=species:S:1:pos:R:3:forces:R:3 energy=-2.8656493208390628 pbc="F F F"
Bi       0.00000000       0.00000000       0.00000000       0.00000000       0.00000000       0.38596562
Bi       0.00000000       0.00000000       4.41272727       0.00000000       0.00000000      -0.38596562
2
Properties=species:S:1:pos:R:3:forces:R:3 energy=-2.843781601799355 pbc="F F F"
Bi       0.00000000       0.00000000       0.00000000       0.00000000       0.00000000       0.35819268
Bi       0.00000000       0.00000000       4.47151515       0.00000000       0.00000000      -0.35819268
2
Properties=species:S:1:pos:R:3:forces:R:3 energy=-2.8235097064928825 pbc="F F F"
Bi       0.00000000       0.00000000       0.00000000       0.00000000       0.00000000       0.33167028
Bi       0.00000000       0.00000000       4.53030303       0.00000000       0.00000000      -0.33167028
2
Properties=species:S:1:pos:R:3:forces:R:3 energy=-2.804761829106248 pbc="F F F"
Bi       0.00000000       0.00000000       0.00000000       0.00000000       0.00000000       0.30634224
Bi       0.00000000       0.00000000       4.58909091       0.00000000       0.00000000      -0.30634224
2
Properties=species:S:1:pos:R:3:forces:R:3 energy=-2.7874704450250944 pbc="F F F"
Bi       0.00000000       0.00000000       0.00000000       0.00000000       0.00000000       0.28209150
Bi       0.00000000       0.00000000       4.64787879       0.00000000       0.00000000      -0.28209150
2
Properties=species:S:1:pos:R:3:forces:R:3 energy=-2.7715769746675547 pbc="F F F"
Bi       0.00000000       0.00000000       0.00000000       0.00000000       0.00000000       0.25872439
Bi       0.00000000       0.00000000       4.70666667       0.00000000       0.00000000      -0.25872439
2
Properties=species:S:1:pos:R:3:forces:R:3 energy=-2.7570377249417963 pbc="F F F"
Bi       0.00000000       0.00000000       0.00000000       0.00000000       0.00000000       0.23601806
Bi       0.00000000       0.00000000       4.76545455       0.00000000       0.00000000      -0.23601806
2
Properties=species:S:1:pos:R:3:forces:R:3 energy=-2.743818342262261 pbc="F F F"
Bi       0.00000000       0.00000000       0.00000000       0.00000000       0.00000000       0.21374093
Bi       0.00000000       0.00000000       4.82424242       0.00000000       0.00000000      -0.21374093
2
Properties=species:S:1:pos:R:3:forces:R:3 energy=-2.7319033144467824 pbc="F F F"
Bi       0.00000000       0.00000000       0.00000000       0.00000000       0.00000000       0.19166924
Bi       0.00000000       0.00000000       4.88303030       0.00000000       0.00000000      -0.19166924
2
Properties=species:S:1:pos:R:3:forces:R:3 energy=-2.7212834240628343 pbc="F F F"
Bi       0.00000000       0.00000000       0.00000000       0.00000000       0.00000000       0.16958922
Bi       0.00000000       0.00000000       4.94181818       0.00000000       0.00000000      -0.16958922
2
Properties=species:S:1:pos:R:3:forces:R:3 energy=-2.71196552042145 pbc="F F F"
Bi       0.00000000       0.00000000       0.00000000       0.00000000       0.00000000       0.14741004
Bi       0.00000000       0.00000000       5.00060606       0.00000000       0.00000000      -0.14741004
2
Properties=species:S:1:pos:R:3:forces:R:3 energy=-2.703949378719851 pbc="F F F"
Bi       0.00000000       0.00000000       0.00000000       0.00000000       0.00000000       0.12535343
Bi       0.00000000       0.00000000       5.05939394       0.00000000       0.00000000      -0.12535343
2
Properties=species:S:1:pos:R:3:forces:R:3 energy=-2.6972087335090773 pbc="F F F"
Bi       0.00000000       0.00000000       0.00000000       0.00000000       0.00000000       0.10425210
Bi       0.00000000       0.00000000       5.11818182       0.00000000       0.00000000      -0.10425210
2
Properties=species:S:1:pos:R:3:forces:R:3 energy=-2.6916431102214555 pbc="F F F"
Bi       0.00000000       0.00000000       0.00000000       0.00000000       0.00000000       0.08566426
Bi       0.00000000       0.00000000       5.17696970       0.00000000       0.00000000      -0.08566426
2
Properties=species:S:1:pos:R:3:forces:R:3 energy=-2.68705064703649 pbc="F F F"
Bi       0.00000000       0.00000000       0.00000000       0.00000000       0.00000000       0.07143340
Bi       0.00000000       0.00000000       5.23575758       0.00000000       0.00000000      -0.07143340
2
Properties=species:S:1:pos:R:3:forces:R:3 energy=-2.6831442392360674 pbc="F F F"
Bi       0.00000000       0.00000000       0.00000000       0.00000000       0.00000000       0.06220610
Bi       0.00000000       0.00000000       5.29454545       0.00000000       0.00000000      -0.06220610
2
Properties=species:S:1:pos:R:3:forces:R:3 energy=-2.679689124147621 pbc="F F F"
Bi       0.00000000       0.00000000       0.00000000       0.00000000       0.00000000       0.05526463
Bi       0.00000000       0.00000000       5.35333333       0.00000000       0.00000000      -0.05526463
2
Properties=species:S:1:pos:R:3:forces:R:3 energy=-2.676718428962656 pbc="F F F"
Bi       0.00000000       0.00000000       0.00000000       0.00000000       0.00000000       0.04481629
Bi       0.00000000       0.00000000       5.41212121       0.00000000       0.00000000      -0.04481629
2
Properties=species:S:1:pos:R:3:forces:R:3 energy=-2.6745025961378315 pbc="F F F"
Bi       0.00000000       0.00000000       0.00000000       0.00000000       0.00000000       0.03071193
Bi       0.00000000       0.00000000       5.47090909       0.00000000       0.00000000      -0.03071193
2
Properties=species:S:1:pos:R:3:forces:R:3 energy=-2.672957445499934 pbc="F F F"
Bi       0.00000000       0.00000000       0.00000000       0.00000000       0.00000000       0.02381280
Bi       0.00000000       0.00000000       5.52969697       0.00000000       0.00000000      -0.02381280
2
Properties=species:S:1:pos:R:3:forces:R:3 energy=-2.6715152246406313 pbc="F F F"
Bi       0.00000000       0.00000000       0.00000000       0.00000000       0.00000000       0.02602703
Bi       0.00000000       0.00000000       5.58848485       0.00000000       0.00000000      -0.02602703
2
Properties=species:S:1:pos:R:3:forces:R:3 energy=-2.6699011208055805 pbc="F F F"
Bi       0.00000000       0.00000000       0.00000000       0.00000000       0.00000000       0.02837959
Bi       0.00000000       0.00000000       5.64727273       0.00000000       0.00000000      -0.02837959
2
Properties=species:S:1:pos:R:3:forces:R:3 energy=-2.66823533889233 pbc="F F F"
Bi       0.00000000       0.00000000       0.00000000       0.00000000       0.00000000       0.02819569
Bi       0.00000000       0.00000000       5.70606061       0.00000000       0.00000000      -0.02819569
2
Properties=species:S:1:pos:R:3:forces:R:3 energy=-2.6665174511649647 pbc="F F F"
Bi       0.00000000       0.00000000       0.00000000       0.00000000       0.00000000       0.03112940
Bi       0.00000000       0.00000000       5.76484848       0.00000000       0.00000000      -0.03112940
2
Properties=species:S:1:pos:R:3:forces:R:3 energy=-2.66453699979041 pbc="F F F"
Bi       0.00000000       0.00000000       0.00000000       0.00000000       0.00000000       0.03537230
Bi       0.00000000       0.00000000       5.82363636       0.00000000       0.00000000      -0.03537230
2
Properties=species:S:1:pos:R:3:forces:R:3 energy=-2.6625887692068027 pbc="F F F"
Bi       0.00000000       0.00000000       0.00000000       0.00000000       0.00000000       0.02901374
Bi       0.00000000       0.00000000       5.88242424       0.00000000       0.00000000      -0.02901374
2
Properties=species:S:1:pos:R:3:forces:R:3 energy=-2.661256839871401 pbc="F F F"
Bi       0.00000000       0.00000000       0.00000000       0.00000000       0.00000000       0.01631485
Bi       0.00000000       0.00000000       5.94121212       0.00000000       0.00000000      -0.01631485
2
Properties=species:S:1:pos:R:3:forces:R:3 energy=-2.6605314787159924 pbc="F F F"
Bi       0.00000000       0.00000000       0.00000000       0.00000000       0.00000000       0.01019728
Bi       0.00000000       0.00000000       6.00000000       0.00000000       0.00000000      -0.01019728
