2
Properties=species:S:1:pos:R:3:forces:R:3 energy=5603.882919179615 pbc="F F F"
Br       0.00000000       0.00000000       0.00000000       0.00000000       0.00000000  -83682.99218750
Br       0.00000000       0.00000000       0.18000000       0.00000000       0.00000000   83682.99218750
2
Properties=species:S:1:pos:R:3:forces:R:3 energy=2589.48619066399 pbc="F F F"
Br       0.00000000       0.00000000       0.00000000       0.00000000       0.00000000  -29763.49023438
Br       0.00000000       0.00000000       0.23878788       0.00000000       0.00000000   29763.49023438
2
Properties=species:S:1:pos:R:3:forces:R:3 energy=1432.7463224999274 pbc="F F F"
Br       0.00000000       0.00000000       0.00000000       0.00000000       0.00000000  -12482.63476562
Br       0.00000000       0.00000000       0.29757576       0.00000000       0.00000000   12482.63476562
2
Properties=species:S:1:pos:R:3:forces:R:3 energy=923.0821379359505 pbc="F F F"
Br       0.00000000       0.00000000       0.00000000       0.00000000       0.00000000   -5821.24609375
Br       0.00000000       0.00000000       0.35636364       0.00000000       0.00000000    5821.24609375
2
Properties=species:S:1:pos:R:3:forces:R:3 energy=676.7811125579968 pbc="F F F"
Br       0.00000000       0.00000000       0.00000000       0.00000000       0.00000000   -2934.52368164
Br       0.00000000       0.00000000       0.41515152       0.00000000       0.00000000    2934.52368164
2
Properties=species:S:1:pos:R:3:forces:R:3 energy=548.6326750801716 pbc="F F F"
Br       0.00000000       0.00000000       0.00000000       0.00000000       0.00000000   -1588.47937012
Br       0.00000000       0.00000000       0.47393939       0.00000000       0.00000000    1588.47937012
2
Properties=species:S:1:pos:R:3:forces:R:3 energy=476.84117121827114 pbc="F F F"
Br       0.00000000       0.00000000       0.00000000       0.00000000       0.00000000    -928.84057617
Br       0.00000000       0.00000000       0.53272727       0.00000000       0.00000000     928.84057617
2
Properties=species:S:1:pos:R:3:forces:R:3 energy=433.383010897076 pbc="F F F"
Br       0.00000000       0.00000000       0.00000000       0.00000000       0.00000000    -583.48071289
Br       0.00000000       0.00000000       0.59151515       0.00000000       0.00000000     583.48071289
2
Properties=species:S:1:pos:R:3:forces:R:3 energy=405.3982392952733 pbc="F F F"
Br       0.00000000       0.00000000       0.00000000       0.00000000       0.00000000    -388.62997437
Br       0.00000000       0.00000000       0.65030303       0.00000000       0.00000000     388.62997437
2
Properties=species:S:1:pos:R:3:forces:R:3 energy=384.4191745566077 pbc="F F F"
Br       0.00000000       0.00000000       0.00000000       0.00000000       0.00000000    -425.80276489
Br       0.00000000       0.00000000       0.70909091       0.00000000       0.00000000     425.80276489
2
Properties=species:S:1:pos:R:3:forces:R:3 energy=353.3242041575936 pbc="F F F"
Br       0.00000000       0.00000000       0.00000000       0.00000000       0.00000000    -595.90039062
Br       0.00000000       0.00000000       0.76787879       0.00000000       0.00000000     595.90039062
2
Properties=species:S:1:pos:R:3:forces:R:3 energy=315.6952678461819 pbc="F F F"
Br       0.00000000       0.00000000       0.00000000       0.00000000       0.00000000    -673.34216309
Br       0.00000000       0.00000000       0.82666667       0.00000000       0.00000000     673.34216309
2
Properties=species:S:1:pos:R:3:forces:R:3 energy=274.7784288991439 pbc="F F F"
Br       0.00000000       0.00000000       0.00000000       0.00000000       0.00000000    -716.04486084
Br       0.00000000       0.00000000       0.88545455       0.00000000       0.00000000     716.04486084
2
Properties=species:S:1:pos:R:3:forces:R:3 energy=231.74342614936725 pbc="F F F"
Br       0.00000000       0.00000000       0.00000000       0.00000000       0.00000000    -744.59973145
Br       0.00000000       0.00000000       0.94424242       0.00000000       0.00000000     744.59973145
2
Properties=species:S:1:pos:R:3:forces:R:3 energy=188.36847317702419 pbc="F F F"
Br       0.00000000       0.00000000       0.00000000       0.00000000       0.00000000    -715.27789307
Br       0.00000000       0.00000000       1.00303030       0.00000000       0.00000000     715.27789307
2
Properties=species:S:1:pos:R:3:forces:R:3 energy=148.8337306059459 pbc="F F F"
Br       0.00000000       0.00000000       0.00000000       0.00000000       0.00000000    -631.50000000
Br       0.00000000       0.00000000       1.06181818       0.00000000       0.00000000     631.50000000
2
Properties=species:S:1:pos:R:3:forces:R:3 energy=113.68715692419744 pbc="F F F"
Br       0.00000000       0.00000000       0.00000000       0.00000000       0.00000000    -562.16412354
Br       0.00000000       0.00000000       1.12060606       0.00000000       0.00000000     562.16412354
2
Properties=species:S:1:pos:R:3:forces:R:3 energy=83.39625105045982 pbc="F F F"
Br       0.00000000       0.00000000       0.00000000       0.00000000       0.00000000    -463.27716064
Br       0.00000000       0.00000000       1.17939394       0.00000000       0.00000000     463.27716064
2
Properties=species:S:1:pos:R:3:forces:R:3 energy=59.50287182572336 pbc="F F F"
Br       0.00000000       0.00000000       0.00000000       0.00000000       0.00000000    -349.36816406
Br       0.00000000       0.00000000       1.23818182       0.00000000       0.00000000     349.36816406
2
Properties=species:S:1:pos:R:3:forces:R:3 energy=42.13382379503182 pbc="F F F"
Br       0.00000000       0.00000000       0.00000000       0.00000000       0.00000000    -245.04421997
Br       0.00000000       0.00000000       1.29696970       0.00000000       0.00000000     245.04421997
2
Properties=species:S:1:pos:R:3:forces:R:3 energy=30.130671368103027 pbc="F F F"
Br       0.00000000       0.00000000       0.00000000       0.00000000       0.00000000    -168.36891174
Br       0.00000000       0.00000000       1.35575758       0.00000000       0.00000000     168.36891174
2
Properties=species:S:1:pos:R:3:forces:R:3 energy=21.797369885991216 pbc="F F F"
Br       0.00000000       0.00000000       0.00000000       0.00000000       0.00000000    -119.14943695
Br       0.00000000       0.00000000       1.41454545       0.00000000       0.00000000     119.14943695
2
Properties=species:S:1:pos:R:3:forces:R:3 energy=15.740399297582709 pbc="F F F"
Br       0.00000000       0.00000000       0.00000000       0.00000000       0.00000000     -89.30277252
Br       0.00000000       0.00000000       1.47333333       0.00000000       0.00000000      89.30277252
2
Properties=species:S:1:pos:R:3:forces:R:3 energy=11.105406062452927 pbc="F F F"
Br       0.00000000       0.00000000       0.00000000       0.00000000       0.00000000     -69.43408966
Br       0.00000000       0.00000000       1.53212121       0.00000000       0.00000000      69.43408966
2
Properties=species:S:1:pos:R:3:forces:R:3 energy=7.4902556717514654 pbc="F F F"
Br       0.00000000       0.00000000       0.00000000       0.00000000       0.00000000     -54.09616089
Br       0.00000000       0.00000000       1.59090909       0.00000000       0.00000000      54.09616089
2
Properties=species:S:1:pos:R:3:forces:R:3 energy=4.692709557755944 pbc="F F F"
Br       0.00000000       0.00000000       0.00000000       0.00000000       0.00000000     -41.46246338
Br       0.00000000       0.00000000       1.64969697       0.00000000       0.00000000      41.46246338
2
Properties=species:S:1:pos:R:3:forces:R:3 energy=2.5725156403062863 pbc="F F F"
Br       0.00000000       0.00000000       0.00000000       0.00000000       0.00000000     -31.02886772
Br       0.00000000       0.00000000       1.70848485       0.00000000       0.00000000      31.02886772
2
Properties=species:S:1:pos:R:3:forces:R:3 energy=1.0011750070490026 pbc="F F F"
Br       0.00000000       0.00000000       0.00000000       0.00000000       0.00000000     -22.79891014
Br       0.00000000       0.00000000       1.76727273       0.00000000       0.00000000      22.79891014
2
Properties=species:S:1:pos:R:3:forces:R:3 energy=-0.1496886096012272 pbc="F F F"
Br       0.00000000       0.00000000       0.00000000       0.00000000       0.00000000     -16.68062592
Br       0.00000000       0.00000000       1.82606061       0.00000000       0.00000000      16.68062592
2
Properties=species:S:1:pos:R:3:forces:R:3 energy=-0.9938206282676243 pbc="F F F"
Br       0.00000000       0.00000000       0.00000000       0.00000000       0.00000000     -12.28121567
Br       0.00000000       0.00000000       1.88484848       0.00000000       0.00000000      12.28121567
2
Properties=species:S:1:pos:R:3:forces:R:3 energy=-1.6174207263517562 pbc="F F F"
Br       0.00000000       0.00000000       0.00000000       0.00000000       0.00000000      -9.09800339
Br       0.00000000       0.00000000       1.94363636       0.00000000       0.00000000       9.09800339
2
Properties=species:S:1:pos:R:3:forces:R:3 energy=-2.0792075104891428 pbc="F F F"
Br       0.00000000       0.00000000       0.00000000       0.00000000       0.00000000      -6.72013330
Br       0.00000000       0.00000000       2.00242424       0.00000000       0.00000000       6.72013330
2
Properties=species:S:1:pos:R:3:forces:R:3 energy=-2.417934289372429 pbc="F F F"
Br       0.00000000       0.00000000       0.00000000       0.00000000       0.00000000      -4.87567234
Br       0.00000000       0.00000000       2.06121212       0.00000000       0.00000000       4.87567234
2
Properties=species:S:1:pos:R:3:forces:R:3 energy=-2.6594279644828687 pbc="F F F"
Br       0.00000000       0.00000000       0.00000000       0.00000000       0.00000000      -3.38810134
Br       0.00000000       0.00000000       2.12000000       0.00000000       0.00000000       3.38810134
2
Properties=species:S:1:pos:R:3:forces:R:3 energy=-2.8208735317500464 pbc="F F F"
Br       0.00000000       0.00000000       0.00000000       0.00000000       0.00000000      -2.13565350
Br       0.00000000       0.00000000       2.17878788       0.00000000       0.00000000       2.13565350
2
Properties=species:S:1:pos:R:3:forces:R:3 energy=-2.9135640604639033 pbc="F F F"
Br       0.00000000       0.00000000       0.00000000       0.00000000       0.00000000      -1.03952277
Br       0.00000000       0.00000000       2.23757576       0.00000000       0.00000000       1.03952277
2
Properties=species:S:1:pos:R:3:forces:R:3 energy=-2.945438439637626 pbc="F F F"
Br       0.00000000       0.00000000       0.00000000       0.00000000       0.00000000      -0.06425843
Br       0.00000000       0.00000000       2.29636364       0.00000000       0.00000000       0.06425843
2
Properties=species:S:1:pos:R:3:forces:R:3 energy=-2.9235113401658506 pbc="F F F"
Br       0.00000000       0.00000000       0.00000000       0.00000000       0.00000000       0.78827918
Br       0.00000000       0.00000000       2.35515152       0.00000000       0.00000000      -0.78827918
2
Properties=species:S:1:pos:R:3:forces:R:3 energy=-2.8555545394766653 pbc="F F F"
Br       0.00000000       0.00000000       0.00000000       0.00000000       0.00000000       1.49824846
Br       0.00000000       0.00000000       2.41393939       0.00000000       0.00000000      -1.49824846
2
Properties=species:S:1:pos:R:3:forces:R:3 energy=-2.750452610373406 pbc="F F F"
Br       0.00000000       0.00000000       0.00000000       0.00000000       0.00000000       2.05072618
Br       0.00000000       0.00000000       2.47272727       0.00000000       0.00000000      -2.05072618
2
Properties=species:S:1:pos:R:3:forces:R:3 energy=-2.6175086683070714 pbc="F F F"
Br       0.00000000       0.00000000       0.00000000       0.00000000       0.00000000       2.44711995
Br       0.00000000       0.00000000       2.53151515       0.00000000       0.00000000      -2.44711995
2
Properties=species:S:1:pos:R:3:forces:R:3 energy=-2.4654543814081586 pbc="F F F"
Br       0.00000000       0.00000000       0.00000000       0.00000000       0.00000000       2.70487809
Br       0.00000000       0.00000000       2.59030303       0.00000000       0.00000000      -2.70487809
2
Properties=species:S:1:pos:R:3:forces:R:3 energy=-2.3016183094619587 pbc="F F F"
Br       0.00000000       0.00000000       0.00000000       0.00000000       0.00000000       2.85363674
Br       0.00000000       0.00000000       2.64909091       0.00000000       0.00000000      -2.85363674
2
Properties=species:S:1:pos:R:3:forces:R:3 energy=-2.13141745611374 pbc="F F F"
Br       0.00000000       0.00000000       0.00000000       0.00000000       0.00000000       2.92635155
Br       0.00000000       0.00000000       2.70787879       0.00000000       0.00000000      -2.92635155
2
Properties=species:S:1:pos:R:3:forces:R:3 energy=-1.9586314498986774 pbc="F F F"
Br       0.00000000       0.00000000       0.00000000       0.00000000       0.00000000       2.94303632
Br       0.00000000       0.00000000       2.76666667       0.00000000       0.00000000      -2.94303632
2
Properties=species:S:1:pos:R:3:forces:R:3 energy=-1.786548998650364 pbc="F F F"
Br       0.00000000       0.00000000       0.00000000       0.00000000       0.00000000       2.89988732
Br       0.00000000       0.00000000       2.82545455       0.00000000       0.00000000      -2.89988732
2
Properties=species:S:1:pos:R:3:forces:R:3 energy=-1.6192214540399548 pbc="F F F"
Br       0.00000000       0.00000000       0.00000000       0.00000000       0.00000000       2.77814507
Br       0.00000000       0.00000000       2.88424242       0.00000000       0.00000000      -2.77814507
2
Properties=species:S:1:pos:R:3:forces:R:3 energy=-1.4616649411902287 pbc="F F F"
Br       0.00000000       0.00000000       0.00000000       0.00000000       0.00000000       2.56762791
Br       0.00000000       0.00000000       2.94303030       0.00000000       0.00000000      -2.56762791
2
Properties=species:S:1:pos:R:3:forces:R:3 energy=-1.318790715927872 pbc="F F F"
Br       0.00000000       0.00000000       0.00000000       0.00000000       0.00000000       2.28328562
Br       0.00000000       0.00000000       3.00181818       0.00000000       0.00000000      -2.28328562
2
Properties=species:S:1:pos:R:3:forces:R:3 energy=-1.1939508324904307 pbc="F F F"
Br       0.00000000       0.00000000       0.00000000       0.00000000       0.00000000       1.96100068
Br       0.00000000       0.00000000       3.06060606       0.00000000       0.00000000      -1.96100068
2
Properties=species:S:1:pos:R:3:forces:R:3 energy=-1.0881858631844885 pbc="F F F"
Br       0.00000000       0.00000000       0.00000000       0.00000000       0.00000000       1.64033628
Br       0.00000000       0.00000000       3.11939394       0.00000000       0.00000000      -1.64033628
2
Properties=species:S:1:pos:R:3:forces:R:3 energy=-1.0004831325598191 pbc="F F F"
Br       0.00000000       0.00000000       0.00000000       0.00000000       0.00000000       1.34997177
Br       0.00000000       0.00000000       3.17818182       0.00000000       0.00000000      -1.34997177
2
Properties=species:S:1:pos:R:3:forces:R:3 energy=-0.9286003220393027 pbc="F F F"
Br       0.00000000       0.00000000       0.00000000       0.00000000       0.00000000       1.10316277
Br       0.00000000       0.00000000       3.23696970       0.00000000       0.00000000      -1.10316277
2
Properties=species:S:1:pos:R:3:forces:R:3 energy=-0.8698992442333714 pbc="F F F"
Br       0.00000000       0.00000000       0.00000000       0.00000000       0.00000000       0.90097976
Br       0.00000000       0.00000000       3.29575758       0.00000000       0.00000000      -0.90097976
2
Properties=species:S:1:pos:R:3:forces:R:3 energy=-0.8218990977811087 pbc="F F F"
Br       0.00000000       0.00000000       0.00000000       0.00000000       0.00000000       0.73791236
Br       0.00000000       0.00000000       3.35454545       0.00000000       0.00000000      -0.73791236
2
Properties=species:S:1:pos:R:3:forces:R:3 energy=-0.7825202311805967 pbc="F F F"
Br       0.00000000       0.00000000       0.00000000       0.00000000       0.00000000       0.60641962
Br       0.00000000       0.00000000       3.41333333       0.00000000       0.00000000      -0.60641962
2
Properties=species:S:1:pos:R:3:forces:R:3 energy=-0.7501168037983497 pbc="F F F"
Br       0.00000000       0.00000000       0.00000000       0.00000000       0.00000000       0.49957064
Br       0.00000000       0.00000000       3.47212121       0.00000000       0.00000000      -0.49957064
2
Properties=species:S:1:pos:R:3:forces:R:3 energy=-0.7234045874694106 pbc="F F F"
Br       0.00000000       0.00000000       0.00000000       0.00000000       0.00000000       0.41209185
Br       0.00000000       0.00000000       3.53090909       0.00000000       0.00000000      -0.41209185
2
Properties=species:S:1:pos:R:3:forces:R:3 energy=-0.7013560298923327 pbc="F F F"
Br       0.00000000       0.00000000       0.00000000       0.00000000       0.00000000       0.34042099
Br       0.00000000       0.00000000       3.58969697       0.00000000       0.00000000      -0.34042099
2
Properties=species:S:1:pos:R:3:forces:R:3 energy=-0.6831142903081958 pbc="F F F"
Br       0.00000000       0.00000000       0.00000000       0.00000000       0.00000000       0.28228638
Br       0.00000000       0.00000000       3.64848485       0.00000000       0.00000000      -0.28228638
2
Properties=species:S:1:pos:R:3:forces:R:3 energy=-0.6679319996038695 pbc="F F F"
Br       0.00000000       0.00000000       0.00000000       0.00000000       0.00000000       0.23610711
Br       0.00000000       0.00000000       3.70727273       0.00000000       0.00000000      -0.23610711
2
Properties=species:S:1:pos:R:3:forces:R:3 energy=-0.6551466329223019 pbc="F F F"
Br       0.00000000       0.00000000       0.00000000       0.00000000       0.00000000       0.20049198
Br       0.00000000       0.00000000       3.76606061       0.00000000       0.00000000      -0.20049198
2
Properties=species:S:1:pos:R:3:forces:R:3 energy=-0.6441815972172845 pbc="F F F"
Br       0.00000000       0.00000000       0.00000000       0.00000000       0.00000000       0.17393018
Br       0.00000000       0.00000000       3.82484848       0.00000000       0.00000000      -0.17393018
2
Properties=species:S:1:pos:R:3:forces:R:3 energy=-0.634552950155225 pbc="F F F"
Br       0.00000000       0.00000000       0.00000000       0.00000000       0.00000000       0.15469813
Br       0.00000000       0.00000000       3.88363636       0.00000000       0.00000000      -0.15469813
2
Properties=species:S:1:pos:R:3:forces:R:3 energy=-0.6258850702170377 pbc="F F F"
Br       0.00000000       0.00000000       0.00000000       0.00000000       0.00000000       0.14095798
Br       0.00000000       0.00000000       3.94242424       0.00000000       0.00000000      -0.14095798
2
Properties=species:S:1:pos:R:3:forces:R:3 energy=-0.6179070323181491 pbc="F F F"
Br       0.00000000       0.00000000       0.00000000       0.00000000       0.00000000       0.13094202
Br       0.00000000       0.00000000       4.00121212       0.00000000       0.00000000      -0.13094202
2
Properties=species:S:1:pos:R:3:forces:R:3 energy=-0.6104458760674195 pbc="F F F"
Br       0.00000000       0.00000000       0.00000000       0.00000000       0.00000000       0.12316558
Br       0.00000000       0.00000000       4.06000000       0.00000000       0.00000000      -0.12316558
2
Properties=species:S:1:pos:R:3:forces:R:3 energy=-0.603402847688502 pbc="F F F"
Br       0.00000000       0.00000000       0.00000000       0.00000000       0.00000000       0.11658730
Br       0.00000000       0.00000000       4.11878788       0.00000000       0.00000000      -0.11658730
2
Properties=species:S:1:pos:R:3:forces:R:3 energy=-0.596725279714757 pbc="F F F"
Br       0.00000000       0.00000000       0.00000000       0.00000000       0.00000000       0.11067900
Br       0.00000000       0.00000000       4.17757576       0.00000000       0.00000000      -0.11067900
2
Properties=species:S:1:pos:R:3:forces:R:3 energy=-0.5903774215592252 pbc="F F F"
Br       0.00000000       0.00000000       0.00000000       0.00000000       0.00000000       0.10539216
Br       0.00000000       0.00000000       4.23636364       0.00000000       0.00000000      -0.10539216
2
Properties=species:S:1:pos:R:3:forces:R:3 energy=-0.5843155980489806 pbc="F F F"
Br       0.00000000       0.00000000       0.00000000       0.00000000       0.00000000       0.10102003
Br       0.00000000       0.00000000       4.29515152       0.00000000       0.00000000      -0.10102003
2
Properties=species:S:1:pos:R:3:forces:R:3 energy=-0.5784735239237841 pbc="F F F"
Br       0.00000000       0.00000000       0.00000000       0.00000000       0.00000000       0.09799945
Br       0.00000000       0.00000000       4.35393939       0.00000000       0.00000000      -0.09799945
2
Properties=species:S:1:pos:R:3:forces:R:3 energy=-0.5727598362869821 pbc="F F F"
Br       0.00000000       0.00000000       0.00000000       0.00000000       0.00000000       0.09668156
Br       0.00000000       0.00000000       4.41272727       0.00000000       0.00000000      -0.09668156
2
Properties=species:S:1:pos:R:3:forces:R:3 energy=-0.5670710533640438 pbc="F F F"
Br       0.00000000       0.00000000       0.00000000       0.00000000       0.00000000       0.09713332
Br       0.00000000       0.00000000       4.47151515       0.00000000       0.00000000      -0.09713332
2
Properties=species:S:1:pos:R:3:forces:R:3 energy=-0.5613112434513617 pbc="F F F"
Br       0.00000000       0.00000000       0.00000000       0.00000000       0.00000000       0.09899758
Br       0.00000000       0.00000000       4.53030303       0.00000000       0.00000000      -0.09899758
2
Properties=species:S:1:pos:R:3:forces:R:3 energy=-0.5554194412609571 pbc="F F F"
Br       0.00000000       0.00000000       0.00000000       0.00000000       0.00000000       0.10146101
Br       0.00000000       0.00000000       4.58909091       0.00000000       0.00000000      -0.10146101
2
Properties=species:S:1:pos:R:3:forces:R:3 energy=-0.5493930454114097 pbc="F F F"
Br       0.00000000       0.00000000       0.00000000       0.00000000       0.00000000       0.10336056
Br       0.00000000       0.00000000       4.64787879       0.00000000       0.00000000      -0.10336056
2
Properties=species:S:1:pos:R:3:forces:R:3 energy=-0.5433027069177621 pbc="F F F"
Br       0.00000000       0.00000000       0.00000000       0.00000000       0.00000000       0.10342300
Br       0.00000000       0.00000000       4.70666667       0.00000000       0.00000000      -0.10342300
2
Properties=species:S:1:pos:R:3:forces:R:3 energy=-0.5372895616193246 pbc="F F F"
Br       0.00000000       0.00000000       0.00000000       0.00000000       0.00000000       0.10062094
Br       0.00000000       0.00000000       4.76545455       0.00000000       0.00000000      -0.10062094
2
Properties=species:S:1:pos:R:3:forces:R:3 energy=-0.531536569057049 pbc="F F F"
Br       0.00000000       0.00000000       0.00000000       0.00000000       0.00000000       0.09454790
Br       0.00000000       0.00000000       4.82424242       0.00000000       0.00000000      -0.09454790
2
Properties=species:S:1:pos:R:3:forces:R:3 energy=-0.5262283403188814 pbc="F F F"
Br       0.00000000       0.00000000       0.00000000       0.00000000       0.00000000       0.08569720
Br       0.00000000       0.00000000       4.88303030       0.00000000       0.00000000      -0.08569720
2
Properties=species:S:1:pos:R:3:forces:R:3 energy=-0.5214878028529877 pbc="F F F"
Br       0.00000000       0.00000000       0.00000000       0.00000000       0.00000000       0.07550173
Br       0.00000000       0.00000000       4.94181818       0.00000000       0.00000000      -0.07550173
2
Properties=species:S:1:pos:R:3:forces:R:3 energy=-0.5173358376198388 pbc="F F F"
Br       0.00000000       0.00000000       0.00000000       0.00000000       0.00000000       0.06607512
Br       0.00000000       0.00000000       5.00060606       0.00000000       0.00000000      -0.06607512
2
Properties=species:S:1:pos:R:3:forces:R:3 energy=-0.5136601612998815 pbc="F F F"
Br       0.00000000       0.00000000       0.00000000       0.00000000       0.00000000       0.05961538
Br       0.00000000       0.00000000       5.05939394       0.00000000       0.00000000      -0.05961538
2
Properties=species:S:1:pos:R:3:forces:R:3 energy=-0.5102375008053052 pbc="F F F"
Br       0.00000000       0.00000000       0.00000000       0.00000000       0.00000000       0.05764535
Br       0.00000000       0.00000000       5.11818182       0.00000000       0.00000000      -0.05764535
2
Properties=species:S:1:pos:R:3:forces:R:3 energy=-0.506790861256359 pbc="F F F"
Br       0.00000000       0.00000000       0.00000000       0.00000000       0.00000000       0.06030095
Br       0.00000000       0.00000000       5.17696970       0.00000000       0.00000000      -0.06030095
2
Properties=species:S:1:pos:R:3:forces:R:3 energy=-0.5030871892757596 pbc="F F F"
Br       0.00000000       0.00000000       0.00000000       0.00000000       0.00000000       0.06599514
Br       0.00000000       0.00000000       5.23575758       0.00000000       0.00000000      -0.06599514
2
Properties=species:S:1:pos:R:3:forces:R:3 energy=-0.4990287830470983 pbc="F F F"
Br       0.00000000       0.00000000       0.00000000       0.00000000       0.00000000       0.07183336
Br       0.00000000       0.00000000       5.29454545       0.00000000       0.00000000      -0.07183336
2
Properties=species:S:1:pos:R:3:forces:R:3 energy=-0.49469028362455714 pbc="F F F"
Br       0.00000000       0.00000000       0.00000000       0.00000000       0.00000000       0.07527208
Br       0.00000000       0.00000000       5.35333333       0.00000000       0.00000000      -0.07527208
2
Properties=species:S:1:pos:R:3:forces:R:3 energy=-0.49022030301039526 pbc="F F F"
Br       0.00000000       0.00000000       0.00000000       0.00000000       0.00000000       0.07671970
Br       0.00000000       0.00000000       5.41212121       0.00000000       0.00000000      -0.07671970
2
Properties=species:S:1:pos:R:3:forces:R:3 energy=-0.485650518397289 pbc="F F F"
Br       0.00000000       0.00000000       0.00000000       0.00000000       0.00000000       0.07899368
Br       0.00000000       0.00000000       5.47090909       0.00000000       0.00000000      -0.07899368
2
Properties=species:S:1:pos:R:3:forces:R:3 energy=-0.48092385951763206 pbc="F F F"
Br       0.00000000       0.00000000       0.00000000       0.00000000       0.00000000       0.08159376
Br       0.00000000       0.00000000       5.52969697       0.00000000       0.00000000      -0.08159376
2
Properties=species:S:1:pos:R:3:forces:R:3 energy=-0.4761016884491083 pbc="F F F"
Br       0.00000000       0.00000000       0.00000000       0.00000000       0.00000000       0.08201600
Br       0.00000000       0.00000000       5.58848485       0.00000000       0.00000000      -0.08201600
2
Properties=species:S:1:pos:R:3:forces:R:3 energy=-0.47134041904681684 pbc="F F F"
Br       0.00000000       0.00000000       0.00000000       0.00000000       0.00000000       0.07955804
Br       0.00000000       0.00000000       5.64727273       0.00000000       0.00000000      -0.07955804
2
Properties=species:S:1:pos:R:3:forces:R:3 energy=-0.46681074948177975 pbc="F F F"
Br       0.00000000       0.00000000       0.00000000       0.00000000       0.00000000       0.07388362
Br       0.00000000       0.00000000       5.70606061       0.00000000       0.00000000      -0.07388362
2
Properties=species:S:1:pos:R:3:forces:R:3 energy=-0.462747833012764 pbc="F F F"
Br       0.00000000       0.00000000       0.00000000       0.00000000       0.00000000       0.06283194
Br       0.00000000       0.00000000       5.76484848       0.00000000       0.00000000      -0.06283194
2
Properties=species:S:1:pos:R:3:forces:R:3 energy=-0.459577512704361 pbc="F F F"
Br       0.00000000       0.00000000       0.00000000       0.00000000       0.00000000       0.04401996
Br       0.00000000       0.00000000       5.82363636       0.00000000       0.00000000      -0.04401996
2
Properties=species:S:1:pos:R:3:forces:R:3 energy=-0.457622440725921 pbc="F F F"
Br       0.00000000       0.00000000       0.00000000       0.00000000       0.00000000       0.02318634
Br       0.00000000       0.00000000       5.88242424       0.00000000       0.00000000      -0.02318634
2
Properties=species:S:1:pos:R:3:forces:R:3 energy=-0.4567359369181426 pbc="F F F"
Br       0.00000000       0.00000000       0.00000000       0.00000000       0.00000000       0.00822680
Br       0.00000000       0.00000000       5.94121212       0.00000000       0.00000000      -0.00822680
2
Properties=species:S:1:pos:R:3:forces:R:3 energy=-0.4564662181063845 pbc="F F F"
Br       0.00000000       0.00000000       0.00000000       0.00000000       0.00000000       0.00273432
Br       0.00000000       0.00000000       6.00000000       0.00000000       0.00000000      -0.00273432
