2
Properties=species:S:1:pos:R:3:forces:R:3 energy=1992.4521537575174 pbc="F F F"
Cl       0.00000000       0.00000000       0.00000000       0.00000000       0.00000000  -26745.15820312
Cl       0.00000000       0.00000000       0.18000000       0.00000000       0.00000000   26745.15820312
2
Properties=species:S:1:pos:R:3:forces:R:3 energy=1002.32727582783 pbc="F F F"
Cl       0.00000000       0.00000000       0.00000000       0.00000000       0.00000000  -10127.92187500
Cl       0.00000000       0.00000000       0.23878788       0.00000000       0.00000000   10127.92187500
2
Properties=species:S:1:pos:R:3:forces:R:3 energy=599.3040214396344 pbc="F F F"
Cl       0.00000000       0.00000000       0.00000000       0.00000000       0.00000000   -4483.00195312
Cl       0.00000000       0.00000000       0.29757576       0.00000000       0.00000000    4483.00195312
2
Properties=species:S:1:pos:R:3:forces:R:3 energy=412.2376762311263 pbc="F F F"
Cl       0.00000000       0.00000000       0.00000000       0.00000000       0.00000000   -2193.18261719
Cl       0.00000000       0.00000000       0.35636364       0.00000000       0.00000000    2193.18261719
2
Properties=species:S:1:pos:R:3:forces:R:3 energy=317.93616257825823 pbc="F F F"
Cl       0.00000000       0.00000000       0.00000000       0.00000000       0.00000000   -1141.58142090
Cl       0.00000000       0.00000000       0.41515152       0.00000000       0.00000000    1141.58142090
2
Properties=species:S:1:pos:R:3:forces:R:3 energy=267.752996109198 pbc="F F F"
Cl       0.00000000       0.00000000       0.00000000       0.00000000       0.00000000    -626.91198730
Cl       0.00000000       0.00000000       0.47393939       0.00000000       0.00000000     626.91198730
2
Properties=species:S:1:pos:R:3:forces:R:3 energy=238.71800777240196 pbc="F F F"
Cl       0.00000000       0.00000000       0.00000000       0.00000000       0.00000000    -396.52133179
Cl       0.00000000       0.00000000       0.53272727       0.00000000       0.00000000     396.52133179
2
Properties=species:S:1:pos:R:3:forces:R:3 energy=218.34998115304512 pbc="F F F"
Cl       0.00000000       0.00000000       0.00000000       0.00000000       0.00000000    -308.52230835
Cl       0.00000000       0.00000000       0.59151515       0.00000000       0.00000000     308.52230835
2
Properties=species:S:1:pos:R:3:forces:R:3 energy=195.88004115756758 pbc="F F F"
Cl       0.00000000       0.00000000       0.00000000       0.00000000       0.00000000    -444.02215576
Cl       0.00000000       0.00000000       0.65030303       0.00000000       0.00000000     444.02215576
2
Properties=species:S:1:pos:R:3:forces:R:3 energy=170.31925043971788 pbc="F F F"
Cl       0.00000000       0.00000000       0.00000000       0.00000000       0.00000000    -431.00079346
Cl       0.00000000       0.00000000       0.70909091       0.00000000       0.00000000     431.00079346
2
Properties=species:S:1:pos:R:3:forces:R:3 energy=145.91236002674364 pbc="F F F"
Cl       0.00000000       0.00000000       0.00000000       0.00000000       0.00000000    -397.99865723
Cl       0.00000000       0.00000000       0.76787879       0.00000000       0.00000000     397.99865723
2
Properties=species:S:1:pos:R:3:forces:R:3 energy=122.9203105274235 pbc="F F F"
Cl       0.00000000       0.00000000       0.00000000       0.00000000       0.00000000    -390.69909668
Cl       0.00000000       0.00000000       0.82666667       0.00000000       0.00000000     390.69909668
2
Properties=species:S:1:pos:R:3:forces:R:3 energy=99.83889822139845 pbc="F F F"
Cl       0.00000000       0.00000000       0.00000000       0.00000000       0.00000000    -391.68292236
Cl       0.00000000       0.00000000       0.88545455       0.00000000       0.00000000     391.68292236
2
Properties=species:S:1:pos:R:3:forces:R:3 energy=77.23835177719552 pbc="F F F"
Cl       0.00000000       0.00000000       0.00000000       0.00000000       0.00000000    -371.79067993
Cl       0.00000000       0.00000000       0.94424242       0.00000000       0.00000000     371.79067993
2
Properties=species:S:1:pos:R:3:forces:R:3 energy=56.9928320817935 pbc="F F F"
Cl       0.00000000       0.00000000       0.00000000       0.00000000       0.00000000    -310.88809204
Cl       0.00000000       0.00000000       1.00303030       0.00000000       0.00000000     310.88809204
2
Properties=species:S:1:pos:R:3:forces:R:3 energy=41.008188731363674 pbc="F F F"
Cl       0.00000000       0.00000000       0.00000000       0.00000000       0.00000000    -232.80101013
Cl       0.00000000       0.00000000       1.06181818       0.00000000       0.00000000     232.80101013
2
Properties=species:S:1:pos:R:3:forces:R:3 energy=29.442470533064817 pbc="F F F"
Cl       0.00000000       0.00000000       0.00000000       0.00000000       0.00000000    -163.61872864
Cl       0.00000000       0.00000000       1.12060606       0.00000000       0.00000000     163.61872864
2
Properties=species:S:1:pos:R:3:forces:R:3 energy=21.326368833320323 pbc="F F F"
Cl       0.00000000       0.00000000       0.00000000       0.00000000       0.00000000    -116.42806244
Cl       0.00000000       0.00000000       1.17939394       0.00000000       0.00000000     116.42806244
2
Properties=species:S:1:pos:R:3:forces:R:3 energy=15.374400515761959 pbc="F F F"
Cl       0.00000000       0.00000000       0.00000000       0.00000000       0.00000000     -88.34058380
Cl       0.00000000       0.00000000       1.23818182       0.00000000       0.00000000      88.34058380
2
Properties=species:S:1:pos:R:3:forces:R:3 energy=10.763546834615942 pbc="F F F"
Cl       0.00000000       0.00000000       0.00000000       0.00000000       0.00000000     -69.49574280
Cl       0.00000000       0.00000000       1.29696970       0.00000000       0.00000000      69.49574280
2
Properties=species:S:1:pos:R:3:forces:R:3 energy=7.119868141009747 pbc="F F F"
Cl       0.00000000       0.00000000       0.00000000       0.00000000       0.00000000     -54.98852921
Cl       0.00000000       0.00000000       1.35575758       0.00000000       0.00000000      54.98852921
2
Properties=species:S:1:pos:R:3:forces:R:3 energy=4.251099298187307 pbc="F F F"
Cl       0.00000000       0.00000000       0.00000000       0.00000000       0.00000000     -42.93105698
Cl       0.00000000       0.00000000       1.41454545       0.00000000       0.00000000      42.93105698
2
Properties=species:S:1:pos:R:3:forces:R:3 energy=2.035912411600995 pbc="F F F"
Cl       0.00000000       0.00000000       0.00000000       0.00000000       0.00000000     -32.75190735
Cl       0.00000000       0.00000000       1.47333333       0.00000000       0.00000000      32.75190735
2
Properties=species:S:1:pos:R:3:forces:R:3 energy=0.36056407417832126 pbc="F F F"
Cl       0.00000000       0.00000000       0.00000000       0.00000000       0.00000000     -24.58417320
Cl       0.00000000       0.00000000       1.53212121       0.00000000       0.00000000      24.58417320
2
Properties=species:S:1:pos:R:3:forces:R:3 energy=-0.8915445717760854 pbc="F F F"
Cl       0.00000000       0.00000000       0.00000000       0.00000000       0.00000000     -18.29011536
Cl       0.00000000       0.00000000       1.59090909       0.00000000       0.00000000      18.29011536
2
Properties=species:S:1:pos:R:3:forces:R:3 energy=-1.8175800079758355 pbc="F F F"
Cl       0.00000000       0.00000000       0.00000000       0.00000000       0.00000000     -13.41324902
Cl       0.00000000       0.00000000       1.64969697       0.00000000       0.00000000      13.41324902
2
Properties=species:S:1:pos:R:3:forces:R:3 energy=-2.4890240323274875 pbc="F F F"
Cl       0.00000000       0.00000000       0.00000000       0.00000000       0.00000000      -9.58341026
Cl       0.00000000       0.00000000       1.70848485       0.00000000       0.00000000       9.58341026
2
Properties=species:S:1:pos:R:3:forces:R:3 energy=-2.960568820663713 pbc="F F F"
Cl       0.00000000       0.00000000       0.00000000       0.00000000       0.00000000      -6.58175707
Cl       0.00000000       0.00000000       1.76727273       0.00000000       0.00000000       6.58175707
2
Properties=species:S:1:pos:R:3:forces:R:3 energy=-3.275625424454639 pbc="F F F"
Cl       0.00000000       0.00000000       0.00000000       0.00000000       0.00000000      -4.23096991
Cl       0.00000000       0.00000000       1.82606061       0.00000000       0.00000000       4.23096991
2
Properties=species:S:1:pos:R:3:forces:R:3 energy=-3.467649168199472 pbc="F F F"
Cl       0.00000000       0.00000000       0.00000000       0.00000000       0.00000000      -2.37252498
Cl       0.00000000       0.00000000       1.88484848       0.00000000       0.00000000       2.37252498
2
Properties=species:S:1:pos:R:3:forces:R:3 energy=-3.5618791577152695 pbc="F F F"
Cl       0.00000000       0.00000000       0.00000000       0.00000000       0.00000000      -0.88850963
Cl       0.00000000       0.00000000       1.94363636       0.00000000       0.00000000       0.88850963
2
Properties=species:S:1:pos:R:3:forces:R:3 energy=-3.5781325078701416 pbc="F F F"
Cl       0.00000000       0.00000000       0.00000000       0.00000000       0.00000000       0.28681597
Cl       0.00000000       0.00000000       2.00242424       0.00000000       0.00000000      -0.28681597
2
Properties=species:S:1:pos:R:3:forces:R:3 energy=-3.533827089356834 pbc="F F F"
Cl       0.00000000       0.00000000       0.00000000       0.00000000       0.00000000       1.17211568
Cl       0.00000000       0.00000000       2.06121212       0.00000000       0.00000000      -1.17211568
2
Properties=species:S:1:pos:R:3:forces:R:3 energy=-3.445996836592364 pbc="F F F"
Cl       0.00000000       0.00000000       0.00000000       0.00000000       0.00000000       1.76855004
Cl       0.00000000       0.00000000       2.12000000       0.00000000       0.00000000      -1.76855004
2
Properties=species:S:1:pos:R:3:forces:R:3 energy=-3.3311132735725795 pbc="F F F"
Cl       0.00000000       0.00000000       0.00000000       0.00000000       0.00000000       2.09983468
Cl       0.00000000       0.00000000       2.17878788       0.00000000       0.00000000      -2.09983468
2
Properties=species:S:1:pos:R:3:forces:R:3 energy=-3.203134839582218 pbc="F F F"
Cl       0.00000000       0.00000000       0.00000000       0.00000000       0.00000000       2.22593594
Cl       0.00000000       0.00000000       2.23757576       0.00000000       0.00000000      -2.22593594
2
Properties=species:S:1:pos:R:3:forces:R:3 energy=-3.0720177322535633 pbc="F F F"
Cl       0.00000000       0.00000000       0.00000000       0.00000000       0.00000000       2.21799541
Cl       0.00000000       0.00000000       2.29636364       0.00000000       0.00000000      -2.21799541
2
Properties=species:S:1:pos:R:3:forces:R:3 energy=-2.9436595567545654 pbc="F F F"
Cl       0.00000000       0.00000000       0.00000000       0.00000000       0.00000000       2.14385152
Cl       0.00000000       0.00000000       2.35515152       0.00000000       0.00000000      -2.14385152
2
Properties=species:S:1:pos:R:3:forces:R:3 energy=-2.8196811377830695 pbc="F F F"
Cl       0.00000000       0.00000000       0.00000000       0.00000000       0.00000000       2.08420658
Cl       0.00000000       0.00000000       2.41393939       0.00000000       0.00000000      -2.08420658
2
Properties=species:S:1:pos:R:3:forces:R:3 energy=-2.6964650493054405 pbc="F F F"
Cl       0.00000000       0.00000000       0.00000000       0.00000000       0.00000000       2.13292575
Cl       0.00000000       0.00000000       2.47272727       0.00000000       0.00000000      -2.13292575
2
Properties=species:S:1:pos:R:3:forces:R:3 energy=-2.565424769293519 pbc="F F F"
Cl       0.00000000       0.00000000       0.00000000       0.00000000       0.00000000       2.35631561
Cl       0.00000000       0.00000000       2.53151515       0.00000000       0.00000000      -2.35631561
2
Properties=species:S:1:pos:R:3:forces:R:3 energy=-2.4161447350617937 pbc="F F F"
Cl       0.00000000       0.00000000       0.00000000       0.00000000       0.00000000       2.74336743
Cl       0.00000000       0.00000000       2.59030303       0.00000000       0.00000000      -2.74336743
2
Properties=species:S:1:pos:R:3:forces:R:3 energy=-2.2417735291477148 pbc="F F F"
Cl       0.00000000       0.00000000       0.00000000       0.00000000       0.00000000       3.18382382
Cl       0.00000000       0.00000000       2.64909091       0.00000000       0.00000000      -3.18382382
2
Properties=species:S:1:pos:R:3:forces:R:3 energy=-2.0442841296053955 pbc="F F F"
Cl       0.00000000       0.00000000       0.00000000       0.00000000       0.00000000       3.49837351
Cl       0.00000000       0.00000000       2.70787879       0.00000000       0.00000000      -3.49837351
2
Properties=species:S:1:pos:R:3:forces:R:3 energy=-1.8360442309900231 pbc="F F F"
Cl       0.00000000       0.00000000       0.00000000       0.00000000       0.00000000       3.53207922
Cl       0.00000000       0.00000000       2.76666667       0.00000000       0.00000000      -3.53207922
2
Properties=species:S:1:pos:R:3:forces:R:3 energy=-1.6351712507921403 pbc="F F F"
Cl       0.00000000       0.00000000       0.00000000       0.00000000       0.00000000       3.25569272
Cl       0.00000000       0.00000000       2.82545455       0.00000000       0.00000000      -3.25569272
2
Properties=species:S:1:pos:R:3:forces:R:3 energy=-1.4573015775558096 pbc="F F F"
Cl       0.00000000       0.00000000       0.00000000       0.00000000       0.00000000       2.77412629
Cl       0.00000000       0.00000000       2.88424242       0.00000000       0.00000000      -2.77412629
2
Properties=species:S:1:pos:R:3:forces:R:3 energy=-1.3100485692919592 pbc="F F F"
Cl       0.00000000       0.00000000       0.00000000       0.00000000       0.00000000       2.23737359
Cl       0.00000000       0.00000000       2.94303030       0.00000000       0.00000000      -2.23737359
2
Properties=species:S:1:pos:R:3:forces:R:3 energy=-1.1931575586407475 pbc="F F F"
Cl       0.00000000       0.00000000       0.00000000       0.00000000       0.00000000       1.75356519
Cl       0.00000000       0.00000000       3.00181818       0.00000000       0.00000000      -1.75356519
2
Properties=species:S:1:pos:R:3:forces:R:3 energy=-1.1019604630631155 pbc="F F F"
Cl       0.00000000       0.00000000       0.00000000       0.00000000       0.00000000       1.36588085
Cl       0.00000000       0.00000000       3.06060606       0.00000000       0.00000000      -1.36588085
2
Properties=species:S:1:pos:R:3:forces:R:3 energy=-1.0306864159690976 pbc="F F F"
Cl       0.00000000       0.00000000       0.00000000       0.00000000       0.00000000       1.07346427
Cl       0.00000000       0.00000000       3.11939394       0.00000000       0.00000000      -1.07346427
2
Properties=species:S:1:pos:R:3:forces:R:3 energy=-0.9742375135507548 pbc="F F F"
Cl       0.00000000       0.00000000       0.00000000       0.00000000       0.00000000       0.85804498
Cl       0.00000000       0.00000000       3.17818182       0.00000000       0.00000000      -0.85804498
2
Properties=species:S:1:pos:R:3:forces:R:3 energy=-0.92868853254045 pbc="F F F"
Cl       0.00000000       0.00000000       0.00000000       0.00000000       0.00000000       0.69956714
Cl       0.00000000       0.00000000       3.23696970       0.00000000       0.00000000      -0.69956714
2
Properties=species:S:1:pos:R:3:forces:R:3 energy=-0.8911919463336291 pbc="F F F"
Cl       0.00000000       0.00000000       0.00000000       0.00000000       0.00000000       0.58173329
Cl       0.00000000       0.00000000       3.29575758       0.00000000       0.00000000      -0.58173329
2
Properties=species:S:1:pos:R:3:forces:R:3 energy=-0.8597305241153567 pbc="F F F"
Cl       0.00000000       0.00000000       0.00000000       0.00000000       0.00000000       0.49258327
Cl       0.00000000       0.00000000       3.35454545       0.00000000       0.00000000      -0.49258327
2
Properties=species:S:1:pos:R:3:forces:R:3 energy=-0.8328819020169193 pbc="F F F"
Cl       0.00000000       0.00000000       0.00000000       0.00000000       0.00000000       0.42363414
Cl       0.00000000       0.00000000       3.41333333       0.00000000       0.00000000      -0.42363414
2
Properties=species:S:1:pos:R:3:forces:R:3 energy=-0.8096420319901134 pbc="F F F"
Cl       0.00000000       0.00000000       0.00000000       0.00000000       0.00000000       0.36900264
Cl       0.00000000       0.00000000       3.47212121       0.00000000       0.00000000      -0.36900264
2
Properties=species:S:1:pos:R:3:forces:R:3 energy=-0.7892939096207199 pbc="F F F"
Cl       0.00000000       0.00000000       0.00000000       0.00000000       0.00000000       0.32475045
Cl       0.00000000       0.00000000       3.53090909       0.00000000       0.00000000      -0.32475045
2
Properties=species:S:1:pos:R:3:forces:R:3 energy=-0.7713059365378072 pbc="F F F"
Cl       0.00000000       0.00000000       0.00000000       0.00000000       0.00000000       0.28835416
Cl       0.00000000       0.00000000       3.58969697       0.00000000       0.00000000      -0.28835416
2
Properties=species:S:1:pos:R:3:forces:R:3 energy=-0.7552671975210447 pbc="F F F"
Cl       0.00000000       0.00000000       0.00000000       0.00000000       0.00000000       0.25823984
Cl       0.00000000       0.00000000       3.64848485       0.00000000       0.00000000      -0.25823984
2
Properties=species:S:1:pos:R:3:forces:R:3 energy=-0.7408405183831307 pbc="F F F"
Cl       0.00000000       0.00000000       0.00000000       0.00000000       0.00000000       0.23337604
Cl       0.00000000       0.00000000       3.70727273       0.00000000       0.00000000      -0.23337604
2
Properties=species:S:1:pos:R:3:forces:R:3 energy=-0.7277403724854331 pbc="F F F"
Cl       0.00000000       0.00000000       0.00000000       0.00000000       0.00000000       0.21297677
Cl       0.00000000       0.00000000       3.76606061       0.00000000       0.00000000      -0.21297677
2
Properties=species:S:1:pos:R:3:forces:R:3 energy=-0.71572598343824 pbc="F F F"
Cl       0.00000000       0.00000000       0.00000000       0.00000000       0.00000000       0.19633479
Cl       0.00000000       0.00000000       3.82484848       0.00000000       0.00000000      -0.19633479
2
Properties=species:S:1:pos:R:3:forces:R:3 energy=-0.7045962432828029 pbc="F F F"
Cl       0.00000000       0.00000000       0.00000000       0.00000000       0.00000000       0.18275645
Cl       0.00000000       0.00000000       3.88363636       0.00000000       0.00000000      -0.18275645
2
Properties=species:S:1:pos:R:3:forces:R:3 energy=-0.6941914230190368 pbc="F F F"
Cl       0.00000000       0.00000000       0.00000000       0.00000000       0.00000000       0.17156419
Cl       0.00000000       0.00000000       3.94242424       0.00000000       0.00000000      -0.17156419
2
Properties=species:S:1:pos:R:3:forces:R:3 energy=-0.6843906232770186 pbc="F F F"
Cl       0.00000000       0.00000000       0.00000000       0.00000000       0.00000000       0.16210774
Cl       0.00000000       0.00000000       4.00121212       0.00000000       0.00000000      -0.16210774
2
Properties=species:S:1:pos:R:3:forces:R:3 energy=-0.6751097574705109 pbc="F F F"
Cl       0.00000000       0.00000000       0.00000000       0.00000000       0.00000000       0.15376680
Cl       0.00000000       0.00000000       4.06000000       0.00000000       0.00000000      -0.15376680
2
Properties=species:S:1:pos:R:3:forces:R:3 energy=-0.6663009407033589 pbc="F F F"
Cl       0.00000000       0.00000000       0.00000000       0.00000000       0.00000000       0.14596346
Cl       0.00000000       0.00000000       4.11878788       0.00000000       0.00000000      -0.14596346
2
Properties=species:S:1:pos:R:3:forces:R:3 energy=-0.6579470800020153 pbc="F F F"
Cl       0.00000000       0.00000000       0.00000000       0.00000000       0.00000000       0.13821189
Cl       0.00000000       0.00000000       4.17757576       0.00000000       0.00000000      -0.13821189
2
Properties=species:S:1:pos:R:3:forces:R:3 energy=-0.6500550841377696 pbc="F F F"
Cl       0.00000000       0.00000000       0.00000000       0.00000000       0.00000000       0.13023043
Cl       0.00000000       0.00000000       4.23636364       0.00000000       0.00000000      -0.13023043
2
Properties=species:S:1:pos:R:3:forces:R:3 energy=-0.642638810154718 pbc="F F F"
Cl       0.00000000       0.00000000       0.00000000       0.00000000       0.00000000       0.12206529
Cl       0.00000000       0.00000000       4.29515152       0.00000000       0.00000000      -0.12206529
2
Properties=species:S:1:pos:R:3:forces:R:3 energy=-0.6356989518458737 pbc="F F F"
Cl       0.00000000       0.00000000       0.00000000       0.00000000       0.00000000       0.11413368
Cl       0.00000000       0.00000000       4.35393939       0.00000000       0.00000000      -0.11413368
2
Properties=species:S:1:pos:R:3:forces:R:3 energy=-0.6292022050539825 pbc="F F F"
Cl       0.00000000       0.00000000       0.00000000       0.00000000       0.00000000       0.10709620
Cl       0.00000000       0.00000000       4.41272727       0.00000000       0.00000000      -0.10709620
2
Properties=species:S:1:pos:R:3:forces:R:3 energy=-0.6230766515633851 pbc="F F F"
Cl       0.00000000       0.00000000       0.00000000       0.00000000       0.00000000       0.10159022
Cl       0.00000000       0.00000000       4.47151515       0.00000000       0.00000000      -0.10159022
2
Properties=species:S:1:pos:R:3:forces:R:3 energy=-0.6172213609915129 pbc="F F F"
Cl       0.00000000       0.00000000       0.00000000       0.00000000       0.00000000       0.09790459
Cl       0.00000000       0.00000000       4.53030303       0.00000000       0.00000000      -0.09790459
2
Properties=species:S:1:pos:R:3:forces:R:3 energy=-0.6115349061517342 pbc="F F F"
Cl       0.00000000       0.00000000       0.00000000       0.00000000       0.00000000       0.09575363
Cl       0.00000000       0.00000000       4.58909091       0.00000000       0.00000000      -0.09575363
2
Properties=species:S:1:pos:R:3:forces:R:3 energy=-0.6059503198855911 pbc="F F F"
Cl       0.00000000       0.00000000       0.00000000       0.00000000       0.00000000       0.09424779
Cl       0.00000000       0.00000000       4.64787879       0.00000000       0.00000000      -0.09424779
2
Properties=species:S:1:pos:R:3:forces:R:3 energy=-0.6004661827408381 pbc="F F F"
Cl       0.00000000       0.00000000       0.00000000       0.00000000       0.00000000       0.09210114
Cl       0.00000000       0.00000000       4.70666667       0.00000000       0.00000000      -0.09210114
2
Properties=species:S:1:pos:R:3:forces:R:3 energy=-0.5951593126131333 pbc="F F F"
Cl       0.00000000       0.00000000       0.00000000       0.00000000       0.00000000       0.08804544
Cl       0.00000000       0.00000000       4.76545455       0.00000000       0.00000000      -0.08804544
2
Properties=species:S:1:pos:R:3:forces:R:3 energy=-0.5901668427548935 pbc="F F F"
Cl       0.00000000       0.00000000       0.00000000       0.00000000       0.00000000       0.08132773
Cl       0.00000000       0.00000000       4.82424242       0.00000000       0.00000000      -0.08132773
2
Properties=species:S:1:pos:R:3:forces:R:3 energy=-0.5856461458632267 pbc="F F F"
Cl       0.00000000       0.00000000       0.00000000       0.00000000       0.00000000       0.07215551
Cl       0.00000000       0.00000000       4.88303030       0.00000000       0.00000000      -0.07215551
2
Properties=species:S:1:pos:R:3:forces:R:3 energy=-0.5817053922929019 pbc="F F F"
Cl       0.00000000       0.00000000       0.00000000       0.00000000       0.00000000       0.06189012
Cl       0.00000000       0.00000000       4.94181818       0.00000000       0.00000000      -0.06189012
2
Properties=species:S:1:pos:R:3:forces:R:3 energy=-0.5783452394787346 pbc="F F F"
Cl       0.00000000       0.00000000       0.00000000       0.00000000       0.00000000       0.05285703
Cl       0.00000000       0.00000000       5.00060606       0.00000000       0.00000000      -0.05285703
2
Properties=species:S:1:pos:R:3:forces:R:3 energy=-0.5754153892570357 pbc="F F F"
Cl       0.00000000       0.00000000       0.00000000       0.00000000       0.00000000       0.04763211
Cl       0.00000000       0.00000000       5.05939394       0.00000000       0.00000000      -0.04763211
2
Properties=species:S:1:pos:R:3:forces:R:3 energy=-0.572634852652878 pbc="F F F"
Cl       0.00000000       0.00000000       0.00000000       0.00000000       0.00000000       0.04794796
Cl       0.00000000       0.00000000       5.11818182       0.00000000       0.00000000      -0.04794796
2
Properties=species:S:1:pos:R:3:forces:R:3 energy=-0.5696726723881227 pbc="F F F"
Cl       0.00000000       0.00000000       0.00000000       0.00000000       0.00000000       0.05355245
Cl       0.00000000       0.00000000       5.17696970       0.00000000       0.00000000      -0.05355245
2
Properties=species:S:1:pos:R:3:forces:R:3 energy=-0.5662881217174416 pbc="F F F"
Cl       0.00000000       0.00000000       0.00000000       0.00000000       0.00000000       0.06166598
Cl       0.00000000       0.00000000       5.23575758       0.00000000       0.00000000      -0.06166598
2
Properties=species:S:1:pos:R:3:forces:R:3 energy=-0.5624595611567996 pbc="F F F"
Cl       0.00000000       0.00000000       0.00000000       0.00000000       0.00000000       0.06793527
Cl       0.00000000       0.00000000       5.29454545       0.00000000       0.00000000      -0.06793527
2
Properties=species:S:1:pos:R:3:forces:R:3 energy=-0.5583859454286292 pbc="F F F"
Cl       0.00000000       0.00000000       0.00000000       0.00000000       0.00000000       0.07011750
Cl       0.00000000       0.00000000       5.35333333       0.00000000       0.00000000      -0.07011750
2
Properties=species:S:1:pos:R:3:forces:R:3 energy=-0.5541961858682057 pbc="F F F"
Cl       0.00000000       0.00000000       0.00000000       0.00000000       0.00000000       0.07350703
Cl       0.00000000       0.00000000       5.41212121       0.00000000       0.00000000      -0.07350703
2
Properties=species:S:1:pos:R:3:forces:R:3 energy=-0.5495559332363645 pbc="F F F"
Cl       0.00000000       0.00000000       0.00000000       0.00000000       0.00000000       0.08562802
Cl       0.00000000       0.00000000       5.47090909       0.00000000       0.00000000      -0.08562802
2
Properties=species:S:1:pos:R:3:forces:R:3 energy=-0.5441585496920374 pbc="F F F"
Cl       0.00000000       0.00000000       0.00000000       0.00000000       0.00000000       0.09604093
Cl       0.00000000       0.00000000       5.52969697       0.00000000       0.00000000      -0.09604093
2
Properties=species:S:1:pos:R:3:forces:R:3 energy=-0.5385602268963455 pbc="F F F"
Cl       0.00000000       0.00000000       0.00000000       0.00000000       0.00000000       0.09227964
Cl       0.00000000       0.00000000       5.58848485       0.00000000       0.00000000      -0.09227964
2
Properties=species:S:1:pos:R:3:forces:R:3 energy=-0.5334347416153951 pbc="F F F"
Cl       0.00000000       0.00000000       0.00000000       0.00000000       0.00000000       0.08229996
Cl       0.00000000       0.00000000       5.64727273       0.00000000       0.00000000      -0.08229996
2
Properties=species:S:1:pos:R:3:forces:R:3 energy=-0.528786259354606 pbc="F F F"
Cl       0.00000000       0.00000000       0.00000000       0.00000000       0.00000000       0.07674957
Cl       0.00000000       0.00000000       5.70606061       0.00000000       0.00000000      -0.07674957
2
Properties=species:S:1:pos:R:3:forces:R:3 energy=-0.524421582157257 pbc="F F F"
Cl       0.00000000       0.00000000       0.00000000       0.00000000       0.00000000       0.06958946
Cl       0.00000000       0.00000000       5.76484848       0.00000000       0.00000000      -0.06958946
2
Properties=species:S:1:pos:R:3:forces:R:3 energy=-0.5209212825280657 pbc="F F F"
Cl       0.00000000       0.00000000       0.00000000       0.00000000       0.00000000       0.04728002
Cl       0.00000000       0.00000000       5.82363636       0.00000000       0.00000000      -0.04728002
2
Properties=species:S:1:pos:R:3:forces:R:3 energy=-0.5189330236371329 pbc="F F F"
Cl       0.00000000       0.00000000       0.00000000       0.00000000       0.00000000       0.02174595
Cl       0.00000000       0.00000000       5.88242424       0.00000000       0.00000000      -0.02174595
2
Properties=species:S:1:pos:R:3:forces:R:3 energy=-0.5181577515395289 pbc="F F F"
Cl       0.00000000       0.00000000       0.00000000       0.00000000       0.00000000       0.00640020
Cl       0.00000000       0.00000000       5.94121212       0.00000000       0.00000000      -0.00640020
2
Properties=species:S:1:pos:R:3:forces:R:3 energy=-0.5179767250499486 pbc="F F F"
Cl       0.00000000       0.00000000       0.00000000       0.00000000       0.00000000       0.00142215
Cl       0.00000000       0.00000000       6.00000000       0.00000000       0.00000000      -0.00142215
