2
Properties=species:S:1:pos:R:3:forces:R:3 energy=3641.6728331077984 pbc="F F F"
Co       0.00000000       0.00000000       0.00000000       0.00000000       0.00000000  -55845.71484375
Co       0.00000000       0.00000000       0.18000000       0.00000000       0.00000000   55845.71484375
2
Properties=species:S:1:pos:R:3:forces:R:3 energy=1609.7995420921736 pbc="F F F"
Co       0.00000000       0.00000000       0.00000000       0.00000000       0.00000000  -20330.76757812
Co       0.00000000       0.00000000       0.23878788       0.00000000       0.00000000   20330.76757812
2
Properties=species:S:1:pos:R:3:forces:R:3 energy=812.1234556695601 pbc="F F F"
Co       0.00000000       0.00000000       0.00000000       0.00000000       0.00000000   -8719.33398438
Co       0.00000000       0.00000000       0.29757576       0.00000000       0.00000000    8719.33398438
2
Properties=species:S:1:pos:R:3:forces:R:3 energy=452.3329283258101 pbc="F F F"
Co       0.00000000       0.00000000       0.00000000       0.00000000       0.00000000   -4167.98925781
Co       0.00000000       0.00000000       0.35636364       0.00000000       0.00000000    4167.98925781
2
Properties=species:S:1:pos:R:3:forces:R:3 energy=273.82291856652074 pbc="F F F"
Co       0.00000000       0.00000000       0.00000000       0.00000000       0.00000000   -2160.72875977
Co       0.00000000       0.00000000       0.41515152       0.00000000       0.00000000    2160.72875977
2
Properties=species:S:1:pos:R:3:forces:R:3 energy=178.18436877450455 pbc="F F F"
Co       0.00000000       0.00000000       0.00000000       0.00000000       0.00000000   -1205.27429199
Co       0.00000000       0.00000000       0.47393939       0.00000000       0.00000000    1205.27429199
2
Properties=species:S:1:pos:R:3:forces:R:3 energy=122.99326009623384 pbc="F F F"
Co       0.00000000       0.00000000       0.00000000       0.00000000       0.00000000    -724.73706055
Co       0.00000000       0.00000000       0.53272727       0.00000000       0.00000000     724.73706055
2
Properties=species:S:1:pos:R:3:forces:R:3 energy=88.6896941552438 pbc="F F F"
Co       0.00000000       0.00000000       0.00000000       0.00000000       0.00000000    -466.73901367
Co       0.00000000       0.00000000       0.59151515       0.00000000       0.00000000     466.73901367
2
Properties=species:S:1:pos:R:3:forces:R:3 energy=66.14058381233824 pbc="F F F"
Co       0.00000000       0.00000000       0.00000000       0.00000000       0.00000000    -311.94711304
Co       0.00000000       0.00000000       0.65030303       0.00000000       0.00000000     311.94711304
2
Properties=species:S:1:pos:R:3:forces:R:3 energy=50.88810817835097 pbc="F F F"
Co       0.00000000       0.00000000       0.00000000       0.00000000       0.00000000    -216.29328918
Co       0.00000000       0.00000000       0.70909091       0.00000000       0.00000000     216.29328918
2
Properties=species:S:1:pos:R:3:forces:R:3 energy=39.538144198064195 pbc="F F F"
Co       0.00000000       0.00000000       0.00000000       0.00000000       0.00000000    -178.38575745
Co       0.00000000       0.00000000       0.76787879       0.00000000       0.00000000     178.38575745
2
Properties=species:S:1:pos:R:3:forces:R:3 energy=29.667342509991677 pbc="F F F"
Co       0.00000000       0.00000000       0.00000000       0.00000000       0.00000000    -154.31474304
Co       0.00000000       0.00000000       0.82666667       0.00000000       0.00000000     154.31474304
2
Properties=species:S:1:pos:R:3:forces:R:3 energy=21.652892778874282 pbc="F F F"
Co       0.00000000       0.00000000       0.00000000       0.00000000       0.00000000    -118.05606079
Co       0.00000000       0.00000000       0.88545455       0.00000000       0.00000000     118.05606079
2
Properties=species:S:1:pos:R:3:forces:R:3 energy=15.747519683912206 pbc="F F F"
Co       0.00000000       0.00000000       0.00000000       0.00000000       0.00000000     -83.84903717
Co       0.00000000       0.00000000       0.94424242       0.00000000       0.00000000      83.84903717
2
Properties=species:S:1:pos:R:3:forces:R:3 energy=11.583412066452023 pbc="F F F"
Co       0.00000000       0.00000000       0.00000000       0.00000000       0.00000000     -59.69148254
Co       0.00000000       0.00000000       1.00303030       0.00000000       0.00000000      59.69148254
2
Properties=species:S:1:pos:R:3:forces:R:3 energy=8.562213727062831 pbc="F F F"
Co       0.00000000       0.00000000       0.00000000       0.00000000       0.00000000     -43.97670746
Co       0.00000000       0.00000000       1.06181818       0.00000000       0.00000000      43.97670746
2
Properties=species:S:1:pos:R:3:forces:R:3 energy=6.349678093664057 pbc="F F F"
Co       0.00000000       0.00000000       0.00000000       0.00000000       0.00000000     -31.89292717
Co       0.00000000       0.00000000       1.12060606       0.00000000       0.00000000      31.89292717
2
Properties=species:S:1:pos:R:3:forces:R:3 energy=4.698235201273814 pbc="F F F"
Co       0.00000000       0.00000000       0.00000000       0.00000000       0.00000000     -25.41677856
Co       0.00000000       0.00000000       1.17939394       0.00000000       0.00000000      25.41677856
2
Properties=species:S:1:pos:R:3:forces:R:3 energy=3.2606063052018404 pbc="F F F"
Co       0.00000000       0.00000000       0.00000000       0.00000000       0.00000000     -23.95683670
Co       0.00000000       0.00000000       1.23818182       0.00000000       0.00000000      23.95683670
2
Properties=species:S:1:pos:R:3:forces:R:3 energy=1.8579251235726928 pbc="F F F"
Co       0.00000000       0.00000000       0.00000000       0.00000000       0.00000000     -23.87001038
Co       0.00000000       0.00000000       1.29696970       0.00000000       0.00000000      23.87001038
2
Properties=species:S:1:pos:R:3:forces:R:3 energy=0.4400699798821191 pbc="F F F"
Co       0.00000000       0.00000000       0.00000000       0.00000000       0.00000000     -24.43522453
Co       0.00000000       0.00000000       1.35575758       0.00000000       0.00000000      24.43522453
2
Properties=species:S:1:pos:R:3:forces:R:3 energy=-1.0014590951713014 pbc="F F F"
Co       0.00000000       0.00000000       0.00000000       0.00000000       0.00000000     -24.28622246
Co       0.00000000       0.00000000       1.41454545       0.00000000       0.00000000      24.28622246
2
Properties=species:S:1:pos:R:3:forces:R:3 energy=-2.366980123794458 pbc="F F F"
Co       0.00000000       0.00000000       0.00000000       0.00000000       0.00000000     -21.78256035
Co       0.00000000       0.00000000       1.47333333       0.00000000       0.00000000      21.78256035
2
Properties=species:S:1:pos:R:3:forces:R:3 energy=-3.5337418130046387 pbc="F F F"
Co       0.00000000       0.00000000       0.00000000       0.00000000       0.00000000     -17.82541847
Co       0.00000000       0.00000000       1.53212121       0.00000000       0.00000000      17.82541847
2
Properties=species:S:1:pos:R:3:forces:R:3 energy=-4.466432988242759 pbc="F F F"
Co       0.00000000       0.00000000       0.00000000       0.00000000       0.00000000     -14.00577068
Co       0.00000000       0.00000000       1.59090909       0.00000000       0.00000000      14.00577068
2
Properties=species:S:1:pos:R:3:forces:R:3 energy=-5.193447345750013 pbc="F F F"
Co       0.00000000       0.00000000       0.00000000       0.00000000       0.00000000     -10.82280922
Co       0.00000000       0.00000000       1.64969697       0.00000000       0.00000000      10.82280922
2
Properties=species:S:1:pos:R:3:forces:R:3 energy=-5.74686301129426 pbc="F F F"
Co       0.00000000       0.00000000       0.00000000       0.00000000       0.00000000      -8.04882812
Co       0.00000000       0.00000000       1.70848485       0.00000000       0.00000000       8.04882812
2
Properties=species:S:1:pos:R:3:forces:R:3 energy=-6.143939612348503 pbc="F F F"
Co       0.00000000       0.00000000       0.00000000       0.00000000       0.00000000      -5.49638844
Co       0.00000000       0.00000000       1.76727273       0.00000000       0.00000000       5.49638844
2
Properties=species:S:1:pos:R:3:forces:R:3 energy=-6.39854310534035 pbc="F F F"
Co       0.00000000       0.00000000       0.00000000       0.00000000       0.00000000      -3.22283006
Co       0.00000000       0.00000000       1.82606061       0.00000000       0.00000000       3.22283006
2
Properties=species:S:1:pos:R:3:forces:R:3 energy=-6.530660005779623 pbc="F F F"
Co       0.00000000       0.00000000       0.00000000       0.00000000       0.00000000      -1.34406626
Co       0.00000000       0.00000000       1.88484848       0.00000000       0.00000000       1.34406626
2
Properties=species:S:1:pos:R:3:forces:R:3 energy=-6.565325041198639 pbc="F F F"
Co       0.00000000       0.00000000       0.00000000       0.00000000       0.00000000       0.08989403
Co       0.00000000       0.00000000       1.94363636       0.00000000       0.00000000      -0.08989403
2
Properties=species:S:1:pos:R:3:forces:R:3 energy=-6.528695454567595 pbc="F F F"
Co       0.00000000       0.00000000       0.00000000       0.00000000       0.00000000       1.08610582
Co       0.00000000       0.00000000       2.00242424       0.00000000       0.00000000      -1.08610582
2
Properties=species:S:1:pos:R:3:forces:R:3 energy=-6.445226775563447 pbc="F F F"
Co       0.00000000       0.00000000       0.00000000       0.00000000       0.00000000       1.69599366
Co       0.00000000       0.00000000       2.06121212       0.00000000       0.00000000      -1.69599366
2
Properties=species:S:1:pos:R:3:forces:R:3 energy=-6.335020022189894 pbc="F F F"
Co       0.00000000       0.00000000       0.00000000       0.00000000       0.00000000       2.01386666
Co       0.00000000       0.00000000       2.12000000       0.00000000       0.00000000      -2.01386666
2
Properties=species:S:1:pos:R:3:forces:R:3 energy=-6.212035707110307 pbc="F F F"
Co       0.00000000       0.00000000       0.00000000       0.00000000       0.00000000       2.14754891
Co       0.00000000       0.00000000       2.17878788       0.00000000       0.00000000      -2.14754891
2
Properties=species:S:1:pos:R:3:forces:R:3 energy=-6.084451398330538 pbc="F F F"
Co       0.00000000       0.00000000       0.00000000       0.00000000       0.00000000       2.18140268
Co       0.00000000       0.00000000       2.23757576       0.00000000       0.00000000      -2.18140268
2
Properties=species:S:1:pos:R:3:forces:R:3 energy=-5.9565386385885395 pbc="F F F"
Co       0.00000000       0.00000000       0.00000000       0.00000000       0.00000000       2.16411376
Co       0.00000000       0.00000000       2.29636364       0.00000000       0.00000000      -2.16411376
2
Properties=species:S:1:pos:R:3:forces:R:3 energy=-5.830563403646098 pbc="F F F"
Co       0.00000000       0.00000000       0.00000000       0.00000000       0.00000000       2.11813784
Co       0.00000000       0.00000000       2.35515152       0.00000000       0.00000000      -2.11813784
2
Properties=species:S:1:pos:R:3:forces:R:3 energy=-5.7076689135008145 pbc="F F F"
Co       0.00000000       0.00000000       0.00000000       0.00000000       0.00000000       2.06503677
Co       0.00000000       0.00000000       2.41393939       0.00000000       0.00000000      -2.06503677
2
Properties=species:S:1:pos:R:3:forces:R:3 energy=-5.586835737359364 pbc="F F F"
Co       0.00000000       0.00000000       0.00000000       0.00000000       0.00000000       2.05824685
Co       0.00000000       0.00000000       2.47272727       0.00000000       0.00000000      -2.05824685
2
Properties=species:S:1:pos:R:3:forces:R:3 energy=-5.464474952932216 pbc="F F F"
Co       0.00000000       0.00000000       0.00000000       0.00000000       0.00000000       2.10716391
Co       0.00000000       0.00000000       2.53151515       0.00000000       0.00000000      -2.10716391
2
Properties=species:S:1:pos:R:3:forces:R:3 energy=-5.339807995148756 pbc="F F F"
Co       0.00000000       0.00000000       0.00000000       0.00000000       0.00000000       2.12256527
Co       0.00000000       0.00000000       2.59030303       0.00000000       0.00000000      -2.12256527
2
Properties=species:S:1:pos:R:3:forces:R:3 energy=-5.2162646824902525 pbc="F F F"
Co       0.00000000       0.00000000       0.00000000       0.00000000       0.00000000       2.07112718
Co       0.00000000       0.00000000       2.64909091       0.00000000       0.00000000      -2.07112718
2
Properties=species:S:1:pos:R:3:forces:R:3 energy=-5.097016055591384 pbc="F F F"
Co       0.00000000       0.00000000       0.00000000       0.00000000       0.00000000       1.98247302
Co       0.00000000       0.00000000       2.70787879       0.00000000       0.00000000      -1.98247302
2
Properties=species:S:1:pos:R:3:forces:R:3 energy=-4.983321720267101 pbc="F F F"
Co       0.00000000       0.00000000       0.00000000       0.00000000       0.00000000       1.88560474
Co       0.00000000       0.00000000       2.76666667       0.00000000       0.00000000      -1.88560474
2
Properties=species:S:1:pos:R:3:forces:R:3 energy=-4.875231711431591 pbc="F F F"
Co       0.00000000       0.00000000       0.00000000       0.00000000       0.00000000       1.79249191
Co       0.00000000       0.00000000       2.82545455       0.00000000       0.00000000      -1.79249191
2
Properties=species:S:1:pos:R:3:forces:R:3 energy=-4.7725292016837635 pbc="F F F"
Co       0.00000000       0.00000000       0.00000000       0.00000000       0.00000000       1.70121431
Co       0.00000000       0.00000000       2.88424242       0.00000000       0.00000000      -1.70121431
2
Properties=species:S:1:pos:R:3:forces:R:3 energy=-4.675314533345503 pbc="F F F"
Co       0.00000000       0.00000000       0.00000000       0.00000000       0.00000000       1.60475755
Co       0.00000000       0.00000000       2.94303030       0.00000000       0.00000000      -1.60475755
2
Properties=species:S:1:pos:R:3:forces:R:3 energy=-4.584017220671218 pbc="F F F"
Co       0.00000000       0.00000000       0.00000000       0.00000000       0.00000000       1.50003421
Co       0.00000000       0.00000000       3.00181818       0.00000000       0.00000000      -1.50003421
2
Properties=species:S:1:pos:R:3:forces:R:3 energy=-4.499012883284553 pbc="F F F"
Co       0.00000000       0.00000000       0.00000000       0.00000000       0.00000000       1.39215958
Co       0.00000000       0.00000000       3.06060606       0.00000000       0.00000000      -1.39215958
2
Properties=species:S:1:pos:R:3:forces:R:3 energy=-4.420177273075201 pbc="F F F"
Co       0.00000000       0.00000000       0.00000000       0.00000000       0.00000000       1.29223299
Co       0.00000000       0.00000000       3.11939394       0.00000000       0.00000000      -1.29223299
2
Properties=species:S:1:pos:R:3:forces:R:3 energy=-4.346705861698697 pbc="F F F"
Co       0.00000000       0.00000000       0.00000000       0.00000000       0.00000000       1.21106708
Co       0.00000000       0.00000000       3.17818182       0.00000000       0.00000000      -1.21106708
2
Properties=species:S:1:pos:R:3:forces:R:3 energy=-4.277316914521161 pbc="F F F"
Co       0.00000000       0.00000000       0.00000000       0.00000000       0.00000000       1.15349948
Co       0.00000000       0.00000000       3.23696970       0.00000000       0.00000000      -1.15349948
2
Properties=species:S:1:pos:R:3:forces:R:3 energy=-4.210673071687956 pbc="F F F"
Co       0.00000000       0.00000000       0.00000000       0.00000000       0.00000000       1.11663568
Co       0.00000000       0.00000000       3.29575758       0.00000000       0.00000000      -1.11663568
2
Properties=species:S:1:pos:R:3:forces:R:3 energy=-4.145784929757568 pbc="F F F"
Co       0.00000000       0.00000000       0.00000000       0.00000000       0.00000000       1.09210849
Co       0.00000000       0.00000000       3.35454545       0.00000000       0.00000000      -1.09210849
2
Properties=species:S:1:pos:R:3:forces:R:3 energy=-4.082220073774939 pbc="F F F"
Co       0.00000000       0.00000000       0.00000000       0.00000000       0.00000000       1.07004941
Co       0.00000000       0.00000000       3.41333333       0.00000000       0.00000000      -1.07004941
2
Properties=species:S:1:pos:R:3:forces:R:3 energy=-4.0200858667842585 pbc="F F F"
Co       0.00000000       0.00000000       0.00000000       0.00000000       0.00000000       1.04234362
Co       0.00000000       0.00000000       3.47212121       0.00000000       0.00000000      -1.04234362
2
Properties=species:S:1:pos:R:3:forces:R:3 energy=-3.959875112980818 pbc="F F F"
Co       0.00000000       0.00000000       0.00000000       0.00000000       0.00000000       1.00408852
Co       0.00000000       0.00000000       3.53090909       0.00000000       0.00000000      -1.00408852
2
Properties=species:S:1:pos:R:3:forces:R:3 energy=-3.902273065374821 pbc="F F F"
Co       0.00000000       0.00000000       0.00000000       0.00000000       0.00000000       0.95347846
Co       0.00000000       0.00000000       3.58969697       0.00000000       0.00000000      -0.95347846
2
Properties=species:S:1:pos:R:3:forces:R:3 energy=-3.848002673126615 pbc="F F F"
Co       0.00000000       0.00000000       0.00000000       0.00000000       0.00000000       0.89100319
Co       0.00000000       0.00000000       3.64848485       0.00000000       0.00000000      -0.89100319
2
Properties=species:S:1:pos:R:3:forces:R:3 energy=-3.7977081532526165 pbc="F F F"
Co       0.00000000       0.00000000       0.00000000       0.00000000       0.00000000       0.81861126
Co       0.00000000       0.00000000       3.70727273       0.00000000       0.00000000      -0.81861126
2
Properties=species:S:1:pos:R:3:forces:R:3 energy=-3.751892022777853 pbc="F F F"
Co       0.00000000       0.00000000       0.00000000       0.00000000       0.00000000       0.73916191
Co       0.00000000       0.00000000       3.76606061       0.00000000       0.00000000      -0.73916191
2
Properties=species:S:1:pos:R:3:forces:R:3 energy=-3.7108723101046093 pbc="F F F"
Co       0.00000000       0.00000000       0.00000000       0.00000000       0.00000000       0.65604979
Co       0.00000000       0.00000000       3.82484848       0.00000000       0.00000000      -0.65604979
2
Properties=species:S:1:pos:R:3:forces:R:3 energy=-3.674757814165096 pbc="F F F"
Co       0.00000000       0.00000000       0.00000000       0.00000000       0.00000000       0.57284868
Co       0.00000000       0.00000000       3.88363636       0.00000000       0.00000000      -0.57284868
2
Properties=species:S:1:pos:R:3:forces:R:3 energy=-3.6434547191211255 pbc="F F F"
Co       0.00000000       0.00000000       0.00000000       0.00000000       0.00000000       0.49290481
Co       0.00000000       0.00000000       3.94242424       0.00000000       0.00000000      -0.49290481
2
Properties=species:S:1:pos:R:3:forces:R:3 energy=-3.6166883578109936 pbc="F F F"
Co       0.00000000       0.00000000       0.00000000       0.00000000       0.00000000       0.41887647
Co       0.00000000       0.00000000       4.00121212       0.00000000       0.00000000      -0.41887647
2
Properties=species:S:1:pos:R:3:forces:R:3 energy=-3.594056032968086 pbc="F F F"
Co       0.00000000       0.00000000       0.00000000       0.00000000       0.00000000       0.35241637
Co       0.00000000       0.00000000       4.06000000       0.00000000       0.00000000      -0.35241637
2
Properties=species:S:1:pos:R:3:forces:R:3 energy=-3.575092569658844 pbc="F F F"
Co       0.00000000       0.00000000       0.00000000       0.00000000       0.00000000       0.29409415
Co       0.00000000       0.00000000       4.11878788       0.00000000       0.00000000      -0.29409415
2
Properties=species:S:1:pos:R:3:forces:R:3 energy=-3.559323944455868 pbc="F F F"
Co       0.00000000       0.00000000       0.00000000       0.00000000       0.00000000       0.24360208
Co       0.00000000       0.00000000       4.17757576       0.00000000       0.00000000      -0.24360208
2
Properties=species:S:1:pos:R:3:forces:R:3 energy=-3.5463113295186104 pbc="F F F"
Co       0.00000000       0.00000000       0.00000000       0.00000000       0.00000000       0.20021521
Co       0.00000000       0.00000000       4.23636364       0.00000000       0.00000000      -0.20021521
2
Properties=species:S:1:pos:R:3:forces:R:3 energy=-3.535656542206568 pbc="F F F"
Co       0.00000000       0.00000000       0.00000000       0.00000000       0.00000000       0.16332279
Co       0.00000000       0.00000000       4.29515152       0.00000000       0.00000000      -0.16332279
2
Properties=species:S:1:pos:R:3:forces:R:3 energy=-3.526983693184335 pbc="F F F"
Co       0.00000000       0.00000000       0.00000000       0.00000000       0.00000000       0.13283855
Co       0.00000000       0.00000000       4.35393939       0.00000000       0.00000000      -0.13283855
2
Properties=species:S:1:pos:R:3:forces:R:3 energy=-3.5199022902264776 pbc="F F F"
Co       0.00000000       0.00000000       0.00000000       0.00000000       0.00000000       0.10930519
Co       0.00000000       0.00000000       4.41272727       0.00000000       0.00000000      -0.10930519
2
Properties=species:S:1:pos:R:3:forces:R:3 energy=-3.5139770445891867 pbc="F F F"
Co       0.00000000       0.00000000       0.00000000       0.00000000       0.00000000       0.09366830
Co       0.00000000       0.00000000       4.47151515       0.00000000       0.00000000      -0.09366830
2
Properties=species:S:1:pos:R:3:forces:R:3 energy=-3.508717292725695 pbc="F F F"
Co       0.00000000       0.00000000       0.00000000       0.00000000       0.00000000       0.08677064
Co       0.00000000       0.00000000       4.53030303       0.00000000       0.00000000      -0.08677064
2
Properties=species:S:1:pos:R:3:forces:R:3 energy=-3.503599852791648 pbc="F F F"
Co       0.00000000       0.00000000       0.00000000       0.00000000       0.00000000       0.08877295
Co       0.00000000       0.00000000       4.58909091       0.00000000       0.00000000      -0.08877295
2
Properties=species:S:1:pos:R:3:forces:R:3 energy=-3.498123320724697 pbc="F F F"
Co       0.00000000       0.00000000       0.00000000       0.00000000       0.00000000       0.09871637
Co       0.00000000       0.00000000       4.64787879       0.00000000       0.00000000      -0.09871637
2
Properties=species:S:1:pos:R:3:forces:R:3 energy=-3.491880378430152 pbc="F F F"
Co       0.00000000       0.00000000       0.00000000       0.00000000       0.00000000       0.11437921
Co       0.00000000       0.00000000       4.70666667       0.00000000       0.00000000      -0.11437921
2
Properties=species:S:1:pos:R:3:forces:R:3 energy=-3.484626245255757 pbc="F F F"
Co       0.00000000       0.00000000       0.00000000       0.00000000       0.00000000       0.13252254
Co       0.00000000       0.00000000       4.76545455       0.00000000       0.00000000      -0.13252254
2
Properties=species:S:1:pos:R:3:forces:R:3 energy=-3.476321593335931 pbc="F F F"
Co       0.00000000       0.00000000       0.00000000       0.00000000       0.00000000       0.14950143
Co       0.00000000       0.00000000       4.82424242       0.00000000       0.00000000      -0.14950143
2
Properties=species:S:1:pos:R:3:forces:R:3 energy=-3.4671361143669888 pbc="F F F"
Co       0.00000000       0.00000000       0.00000000       0.00000000       0.00000000       0.16207373
Co       0.00000000       0.00000000       4.88303030       0.00000000       0.00000000      -0.16207373
2
Properties=species:S:1:pos:R:3:forces:R:3 energy=-3.4573927233239843 pbc="F F F"
Co       0.00000000       0.00000000       0.00000000       0.00000000       0.00000000       0.16822839
Co       0.00000000       0.00000000       4.94181818       0.00000000       0.00000000      -0.16822839
2
Properties=species:S:1:pos:R:3:forces:R:3 energy=-3.4474889373504074 pbc="F F F"
Co       0.00000000       0.00000000       0.00000000       0.00000000       0.00000000       0.16766061
Co       0.00000000       0.00000000       5.00060606       0.00000000       0.00000000      -0.16766061
2
Properties=species:S:1:pos:R:3:forces:R:3 energy=-3.437785416240406 pbc="F F F"
Co       0.00000000       0.00000000       0.00000000       0.00000000       0.00000000       0.16172184
Co       0.00000000       0.00000000       5.05939394       0.00000000       0.00000000      -0.16172184
2
Properties=species:S:1:pos:R:3:forces:R:3 energy=-3.4285351109391042 pbc="F F F"
Co       0.00000000       0.00000000       0.00000000       0.00000000       0.00000000       0.15267120
Co       0.00000000       0.00000000       5.11818182       0.00000000       0.00000000      -0.15267120
2
Properties=species:S:1:pos:R:3:forces:R:3 energy=-3.4198588363096634 pbc="F F F"
Co       0.00000000       0.00000000       0.00000000       0.00000000       0.00000000       0.14235976
Co       0.00000000       0.00000000       5.17696970       0.00000000       0.00000000      -0.14235976
2
Properties=species:S:1:pos:R:3:forces:R:3 energy=-3.4118195048425815 pbc="F F F"
Co       0.00000000       0.00000000       0.00000000       0.00000000       0.00000000       0.13083267
Co       0.00000000       0.00000000       5.23575758       0.00000000       0.00000000      -0.13083267
2
Properties=species:S:1:pos:R:3:forces:R:3 energy=-3.4045389517594504 pbc="F F F"
Co       0.00000000       0.00000000       0.00000000       0.00000000       0.00000000       0.11615340
Co       0.00000000       0.00000000       5.29454545       0.00000000       0.00000000      -0.11615340
2
Properties=species:S:1:pos:R:3:forces:R:3 energy=-3.3982297919877102 pbc="F F F"
Co       0.00000000       0.00000000       0.00000000       0.00000000       0.00000000       0.09841293
Co       0.00000000       0.00000000       5.35333333       0.00000000       0.00000000      -0.09841293
2
Properties=species:S:1:pos:R:3:forces:R:3 energy=-3.3928361376171385 pbc="F F F"
Co       0.00000000       0.00000000       0.00000000       0.00000000       0.00000000       0.08766028
Co       0.00000000       0.00000000       5.41212121       0.00000000       0.00000000      -0.08766028
2
Properties=species:S:1:pos:R:3:forces:R:3 energy=-3.38753344165432 pbc="F F F"
Co       0.00000000       0.00000000       0.00000000       0.00000000       0.00000000       0.09551235
Co       0.00000000       0.00000000       5.47090909       0.00000000       0.00000000      -0.09551235
2
Properties=species:S:1:pos:R:3:forces:R:3 energy=-3.381556136025815 pbc="F F F"
Co       0.00000000       0.00000000       0.00000000       0.00000000       0.00000000       0.10568772
Co       0.00000000       0.00000000       5.52969697       0.00000000       0.00000000      -0.10568772
2
Properties=species:S:1:pos:R:3:forces:R:3 energy=-3.3754686806211263 pbc="F F F"
Co       0.00000000       0.00000000       0.00000000       0.00000000       0.00000000       0.09893121
Co       0.00000000       0.00000000       5.58848485       0.00000000       0.00000000      -0.09893121
2
Properties=species:S:1:pos:R:3:forces:R:3 energy=-3.3699787314450456 pbc="F F F"
Co       0.00000000       0.00000000       0.00000000       0.00000000       0.00000000       0.08985608
Co       0.00000000       0.00000000       5.64727273       0.00000000       0.00000000      -0.08985608
2
Properties=species:S:1:pos:R:3:forces:R:3 energy=-3.36446805601838 pbc="F F F"
Co       0.00000000       0.00000000       0.00000000       0.00000000       0.00000000       0.10184705
Co       0.00000000       0.00000000       5.70606061       0.00000000       0.00000000      -0.10184705
2
Properties=species:S:1:pos:R:3:forces:R:3 energy=-3.357754081917382 pbc="F F F"
Co       0.00000000       0.00000000       0.00000000       0.00000000       0.00000000       0.12419372
Co       0.00000000       0.00000000       5.76484848       0.00000000       0.00000000      -0.12419372
2
Properties=species:S:1:pos:R:3:forces:R:3 energy=-3.3505377466610287 pbc="F F F"
Co       0.00000000       0.00000000       0.00000000       0.00000000       0.00000000       0.11392222
Co       0.00000000       0.00000000       5.82363636       0.00000000       0.00000000      -0.11392222
2
Properties=species:S:1:pos:R:3:forces:R:3 energy=-3.345079505868954 pbc="F F F"
Co       0.00000000       0.00000000       0.00000000       0.00000000       0.00000000       0.06952573
Co       0.00000000       0.00000000       5.88242424       0.00000000       0.00000000      -0.06952573
2
Properties=species:S:1:pos:R:3:forces:R:3 energy=-3.342336441769422 pbc="F F F"
Co       0.00000000       0.00000000       0.00000000       0.00000000       0.00000000       0.02626884
Co       0.00000000       0.00000000       5.94121212       0.00000000       0.00000000      -0.02626884
2
Properties=species:S:1:pos:R:3:forces:R:3 energy=-3.341461804386812 pbc="F F F"
Co       0.00000000       0.00000000       0.00000000       0.00000000       0.00000000       0.00903741
Co       0.00000000       0.00000000       6.00000000       0.00000000       0.00000000      -0.00903741
