2
Properties=species:S:1:pos:R:3:forces:R:3 energy=1394.1655955554818 pbc="F F F"
F        0.00000000       0.00000000       0.00000000       0.00000000       0.00000000   -9048.83007812
F        0.00000000       0.00000000       0.18000000       0.00000000       0.00000000    9048.83007812
2
Properties=species:S:1:pos:R:3:forces:R:3 energy=1065.4728465324404 pbc="F F F"
F        0.00000000       0.00000000       0.00000000       0.00000000       0.00000000   -3142.96191406
F        0.00000000       0.00000000       0.23878788       0.00000000       0.00000000    3142.96191406
2
Properties=species:S:1:pos:R:3:forces:R:3 energy=954.4279856941804 pbc="F F F"
F        0.00000000       0.00000000       0.00000000       0.00000000       0.00000000   -1022.56445312
F        0.00000000       0.00000000       0.29757576       0.00000000       0.00000000    1022.56445312
2
Properties=species:S:1:pos:R:3:forces:R:3 energy=894.7233958539942 pbc="F F F"
F        0.00000000       0.00000000       0.00000000       0.00000000       0.00000000   -1701.77709961
F        0.00000000       0.00000000       0.35636364       0.00000000       0.00000000    1701.77709961
2
Properties=species:S:1:pos:R:3:forces:R:3 energy=748.686835803716 pbc="F F F"
F        0.00000000       0.00000000       0.00000000       0.00000000       0.00000000   -3198.34106445
F        0.00000000       0.00000000       0.41515152       0.00000000       0.00000000    3198.34106445
2
Properties=species:S:1:pos:R:3:forces:R:3 energy=518.8294139457431 pbc="F F F"
F        0.00000000       0.00000000       0.00000000       0.00000000       0.00000000   -4293.71972656
F        0.00000000       0.00000000       0.47393939       0.00000000       0.00000000    4293.71972656
2
Properties=species:S:1:pos:R:3:forces:R:3 energy=288.7998119258481 pbc="F F F"
F        0.00000000       0.00000000       0.00000000       0.00000000       0.00000000   -3343.14257812
F        0.00000000       0.00000000       0.53272727       0.00000000       0.00000000    3343.14257812
2
Properties=species:S:1:pos:R:3:forces:R:3 energy=140.62529720958923 pbc="F F F"
F        0.00000000       0.00000000       0.00000000       0.00000000       0.00000000   -1703.62280273
F        0.00000000       0.00000000       0.59151515       0.00000000       0.00000000    1703.62280273
2
Properties=species:S:1:pos:R:3:forces:R:3 energy=73.93997167652161 pbc="F F F"
F        0.00000000       0.00000000       0.00000000       0.00000000       0.00000000    -717.01000977
F        0.00000000       0.00000000       0.65030303       0.00000000       0.00000000     717.01000977
2
Properties=species:S:1:pos:R:3:forces:R:3 energy=45.181991470414026 pbc="F F F"
F        0.00000000       0.00000000       0.00000000       0.00000000       0.00000000    -316.36373901
F        0.00000000       0.00000000       0.70909091       0.00000000       0.00000000     316.36373901
2
Properties=species:S:1:pos:R:3:forces:R:3 energy=29.93439685047202 pbc="F F F"
F        0.00000000       0.00000000       0.00000000       0.00000000       0.00000000    -237.86015320
F        0.00000000       0.00000000       0.76787879       0.00000000       0.00000000     237.86015320
2
Properties=species:S:1:pos:R:3:forces:R:3 energy=18.548008385795868 pbc="F F F"
F        0.00000000       0.00000000       0.00000000       0.00000000       0.00000000    -146.26055908
F        0.00000000       0.00000000       0.82666667       0.00000000       0.00000000     146.26055908
2
Properties=species:S:1:pos:R:3:forces:R:3 energy=11.65169516793327 pbc="F F F"
F        0.00000000       0.00000000       0.00000000       0.00000000       0.00000000     -97.09447479
F        0.00000000       0.00000000       0.88545455       0.00000000       0.00000000      97.09447479
2
Properties=species:S:1:pos:R:3:forces:R:3 energy=6.7023831098258 pbc="F F F"
F        0.00000000       0.00000000       0.00000000       0.00000000       0.00000000     -71.79442596
F        0.00000000       0.00000000       0.94424242       0.00000000       0.00000000      71.79442596
2
Properties=species:S:1:pos:R:3:forces:R:3 energy=3.1817066409878167 pbc="F F F"
F        0.00000000       0.00000000       0.00000000       0.00000000       0.00000000     -48.84745026
F        0.00000000       0.00000000       1.00303030       0.00000000       0.00000000      48.84745026
2
Properties=species:S:1:pos:R:3:forces:R:3 energy=0.8013501082023308 pbc="F F F"
F        0.00000000       0.00000000       0.00000000       0.00000000       0.00000000     -33.47515488
F        0.00000000       0.00000000       1.06181818       0.00000000       0.00000000      33.47515488
2
Properties=species:S:1:pos:R:3:forces:R:3 energy=-0.8671945904445328 pbc="F F F"
F        0.00000000       0.00000000       0.00000000       0.00000000       0.00000000     -23.88987160
F        0.00000000       0.00000000       1.12060606       0.00000000       0.00000000      23.88987160
2
Properties=species:S:1:pos:R:3:forces:R:3 energy=-2.053613913996965 pbc="F F F"
F        0.00000000       0.00000000       0.00000000       0.00000000       0.00000000     -16.72340202
F        0.00000000       0.00000000       1.17939394       0.00000000       0.00000000      16.72340202
2
Properties=species:S:1:pos:R:3:forces:R:3 energy=-2.8575149950491974 pbc="F F F"
F        0.00000000       0.00000000       0.00000000       0.00000000       0.00000000     -10.82021618
F        0.00000000       0.00000000       1.23818182       0.00000000       0.00000000      10.82021618
2
Properties=species:S:1:pos:R:3:forces:R:3 energy=-3.349780879724459 pbc="F F F"
F        0.00000000       0.00000000       0.00000000       0.00000000       0.00000000      -6.14034605
F        0.00000000       0.00000000       1.29696970       0.00000000       0.00000000       6.14034605
2
Properties=species:S:1:pos:R:3:forces:R:3 energy=-3.6039573327780636 pbc="F F F"
F        0.00000000       0.00000000       0.00000000       0.00000000       0.00000000      -2.69768381
F        0.00000000       0.00000000       1.35575758       0.00000000       0.00000000       2.69768381
2
Properties=species:S:1:pos:R:3:forces:R:3 energy=-3.685970939843173 pbc="F F F"
F        0.00000000       0.00000000       0.00000000       0.00000000       0.00000000      -0.22304472
F        0.00000000       0.00000000       1.41454545       0.00000000       0.00000000       0.22304472
2
Properties=species:S:1:pos:R:3:forces:R:3 energy=-3.642289537972102 pbc="F F F"
F        0.00000000       0.00000000       0.00000000       0.00000000       0.00000000       1.63007772
F        0.00000000       0.00000000       1.47333333       0.00000000       0.00000000      -1.63007772
2
Properties=species:S:1:pos:R:3:forces:R:3 energy=-3.501053231750658 pbc="F F F"
F        0.00000000       0.00000000       0.00000000       0.00000000       0.00000000       3.14084053
F        0.00000000       0.00000000       1.53212121       0.00000000       0.00000000      -3.14084053
2
Properties=species:S:1:pos:R:3:forces:R:3 energy=-3.2739505655801406 pbc="F F F"
F        0.00000000       0.00000000       0.00000000       0.00000000       0.00000000       4.59936094
F        0.00000000       0.00000000       1.59090909       0.00000000       0.00000000      -4.59936094
2
Properties=species:S:1:pos:R:3:forces:R:3 energy=-2.959284953323458 pbc="F F F"
F        0.00000000       0.00000000       0.00000000       0.00000000       0.00000000       6.07580376
F        0.00000000       0.00000000       1.64969697       0.00000000       0.00000000      -6.07580376
2
Properties=species:S:1:pos:R:3:forces:R:3 energy=-2.5726409117024978 pbc="F F F"
F        0.00000000       0.00000000       0.00000000       0.00000000       0.00000000       6.88360929
F        0.00000000       0.00000000       1.70848485       0.00000000       0.00000000      -6.88360929
2
Properties=species:S:1:pos:R:3:forces:R:3 energy=-2.1768026236799907 pbc="F F F"
F        0.00000000       0.00000000       0.00000000       0.00000000       0.00000000       6.37148762
F        0.00000000       0.00000000       1.76727273       0.00000000       0.00000000      -6.37148762
2
Properties=species:S:1:pos:R:3:forces:R:3 energy=-1.8399397432474738 pbc="F F F"
F        0.00000000       0.00000000       0.00000000       0.00000000       0.00000000       5.03128433
F        0.00000000       0.00000000       1.82606061       0.00000000       0.00000000      -5.03128433
2
Properties=species:S:1:pos:R:3:forces:R:3 energy=-1.5843454732703264 pbc="F F F"
F        0.00000000       0.00000000       0.00000000       0.00000000       0.00000000       3.71523595
F        0.00000000       0.00000000       1.88484848       0.00000000       0.00000000      -3.71523595
2
Properties=species:S:1:pos:R:3:forces:R:3 energy=-1.3955092731400613 pbc="F F F"
F        0.00000000       0.00000000       0.00000000       0.00000000       0.00000000       2.77361226
F        0.00000000       0.00000000       1.94363636       0.00000000       0.00000000      -2.77361226
2
Properties=species:S:1:pos:R:3:forces:R:3 energy=-1.251934838584762 pbc="F F F"
F        0.00000000       0.00000000       0.00000000       0.00000000       0.00000000       2.15134859
F        0.00000000       0.00000000       2.00242424       0.00000000       0.00000000      -2.15134859
2
Properties=species:S:1:pos:R:3:forces:R:3 energy=-1.1392110464994452 pbc="F F F"
F        0.00000000       0.00000000       0.00000000       0.00000000       0.00000000       1.70236349
F        0.00000000       0.00000000       2.06121212       0.00000000       0.00000000      -1.70236349
2
Properties=species:S:1:pos:R:3:forces:R:3 energy=-1.0502741603638925 pbc="F F F"
F        0.00000000       0.00000000       0.00000000       0.00000000       0.00000000       1.33235073
F        0.00000000       0.00000000       2.12000000       0.00000000       0.00000000      -1.33235073
2
Properties=species:S:1:pos:R:3:forces:R:3 energy=-0.9816639918449536 pbc="F F F"
F        0.00000000       0.00000000       0.00000000       0.00000000       0.00000000       1.00900042
F        0.00000000       0.00000000       2.17878788       0.00000000       0.00000000      -1.00900042
2
Properties=species:S:1:pos:R:3:forces:R:3 energy=-0.9307563451741747 pbc="F F F"
F        0.00000000       0.00000000       0.00000000       0.00000000       0.00000000       0.73082495
F        0.00000000       0.00000000       2.23757576       0.00000000       0.00000000      -0.73082495
2
Properties=species:S:1:pos:R:3:forces:R:3 energy=-0.8947777611692662 pbc="F F F"
F        0.00000000       0.00000000       0.00000000       0.00000000       0.00000000       0.50139189
F        0.00000000       0.00000000       2.29636364       0.00000000       0.00000000      -0.50139189
2
Properties=species:S:1:pos:R:3:forces:R:3 energy=-0.8708705969427208 pbc="F F F"
F        0.00000000       0.00000000       0.00000000       0.00000000       0.00000000       0.31949121
F        0.00000000       0.00000000       2.35515152       0.00000000       0.00000000      -0.31949121
2
Properties=species:S:1:pos:R:3:forces:R:3 energy=-0.8563942942870384 pbc="F F F"
F        0.00000000       0.00000000       0.00000000       0.00000000       0.00000000       0.17934749
F        0.00000000       0.00000000       2.41393939       0.00000000       0.00000000      -0.17934749
2
Properties=species:S:1:pos:R:3:forces:R:3 energy=-0.8491113148641999 pbc="F F F"
F        0.00000000       0.00000000       0.00000000       0.00000000       0.00000000       0.07351691
F        0.00000000       0.00000000       2.47272727       0.00000000       0.00000000      -0.07351691
2
Properties=species:S:1:pos:R:3:forces:R:3 energy=-0.8472166801428305 pbc="F F F"
F        0.00000000       0.00000000       0.00000000       0.00000000       0.00000000      -0.00503195
F        0.00000000       0.00000000       2.53151515       0.00000000       0.00000000       0.00503195
2
Properties=species:S:1:pos:R:3:forces:R:3 energy=-0.849284698101035 pbc="F F F"
F        0.00000000       0.00000000       0.00000000       0.00000000       0.00000000      -0.06219991
F        0.00000000       0.00000000       2.59030303       0.00000000       0.00000000       0.06219991
2
Properties=species:S:1:pos:R:3:forces:R:3 energy=-0.8542050026908207 pbc="F F F"
F        0.00000000       0.00000000       0.00000000       0.00000000       0.00000000      -0.10276353
F        0.00000000       0.00000000       2.64909091       0.00000000       0.00000000       0.10276353
2
Properties=species:S:1:pos:R:3:forces:R:3 energy=-0.8611175027879125 pbc="F F F"
F        0.00000000       0.00000000       0.00000000       0.00000000       0.00000000      -0.13053952
F        0.00000000       0.00000000       2.70787879       0.00000000       0.00000000       0.13053952
2
Properties=species:S:1:pos:R:3:forces:R:3 energy=-0.869361847748406 pbc="F F F"
F        0.00000000       0.00000000       0.00000000       0.00000000       0.00000000      -0.14853826
F        0.00000000       0.00000000       2.76666667       0.00000000       0.00000000       0.14853826
2
Properties=species:S:1:pos:R:3:forces:R:3 energy=-0.8784361825784935 pbc="F F F"
F        0.00000000       0.00000000       0.00000000       0.00000000       0.00000000      -0.15908863
F        0.00000000       0.00000000       2.82545455       0.00000000       0.00000000       0.15908863
2
Properties=species:S:1:pos:R:3:forces:R:3 energy=-0.8879560199376135 pbc="F F F"
F        0.00000000       0.00000000       0.00000000       0.00000000       0.00000000      -0.16395524
F        0.00000000       0.00000000       2.88424242       0.00000000       0.00000000       0.16395524
2
Properties=species:S:1:pos:R:3:forces:R:3 energy=-0.8976285867785093 pbc="F F F"
F        0.00000000       0.00000000       0.00000000       0.00000000       0.00000000      -0.16448785
F        0.00000000       0.00000000       2.94303030       0.00000000       0.00000000       0.16448785
2
Properties=species:S:1:pos:R:3:forces:R:3 energy=-0.9072313472721988 pbc="F F F"
F        0.00000000       0.00000000       0.00000000       0.00000000       0.00000000      -0.16174193
F        0.00000000       0.00000000       3.00181818       0.00000000       0.00000000       0.16174193
2
Properties=species:S:1:pos:R:3:forces:R:3 energy=-0.9165973620521166 pbc="F F F"
F        0.00000000       0.00000000       0.00000000       0.00000000       0.00000000      -0.15656264
F        0.00000000       0.00000000       3.06060606       0.00000000       0.00000000       0.15656264
2
Properties=species:S:1:pos:R:3:forces:R:3 energy=-0.925604458591722 pbc="F F F"
F        0.00000000       0.00000000       0.00000000       0.00000000       0.00000000      -0.14960103
F        0.00000000       0.00000000       3.11939394       0.00000000       0.00000000       0.14960103
2
Properties=species:S:1:pos:R:3:forces:R:3 energy=-0.9341613029325336 pbc="F F F"
F        0.00000000       0.00000000       0.00000000       0.00000000       0.00000000      -0.14128916
F        0.00000000       0.00000000       3.17818182       0.00000000       0.00000000       0.14128916
2
Properties=species:S:1:pos:R:3:forces:R:3 energy=-0.9421945375641482 pbc="F F F"
F        0.00000000       0.00000000       0.00000000       0.00000000       0.00000000      -0.13180023
F        0.00000000       0.00000000       3.23696970       0.00000000       0.00000000       0.13180023
2
Properties=species:S:1:pos:R:3:forces:R:3 energy=-0.9496325796622527 pbc="F F F"
F        0.00000000       0.00000000       0.00000000       0.00000000       0.00000000      -0.12106363
F        0.00000000       0.00000000       3.29575758       0.00000000       0.00000000       0.12106363
2
Properties=species:S:1:pos:R:3:forces:R:3 energy=-0.9563992780496776 pbc="F F F"
F        0.00000000       0.00000000       0.00000000       0.00000000       0.00000000      -0.10883803
F        0.00000000       0.00000000       3.35454545       0.00000000       0.00000000       0.10883803
2
Properties=species:S:1:pos:R:3:forces:R:3 energy=-0.9623955175459084 pbc="F F F"
F        0.00000000       0.00000000       0.00000000       0.00000000       0.00000000      -0.09485033
F        0.00000000       0.00000000       3.41333333       0.00000000       0.00000000       0.09485033
2
Properties=species:S:1:pos:R:3:forces:R:3 energy=-0.9675137448793982 pbc="F F F"
F        0.00000000       0.00000000       0.00000000       0.00000000       0.00000000      -0.07896829
F        0.00000000       0.00000000       3.47212121       0.00000000       0.00000000       0.07896829
2
Properties=species:S:1:pos:R:3:forces:R:3 energy=-0.9716452287728884 pbc="F F F"
F        0.00000000       0.00000000       0.00000000       0.00000000       0.00000000      -0.06133031
F        0.00000000       0.00000000       3.53090909       0.00000000       0.00000000       0.06133031
2
Properties=species:S:1:pos:R:3:forces:R:3 energy=-0.9746995498702927 pbc="F F F"
F        0.00000000       0.00000000       0.00000000       0.00000000       0.00000000      -0.04242759
F        0.00000000       0.00000000       3.58969697       0.00000000       0.00000000       0.04242759
2
Properties=species:S:1:pos:R:3:forces:R:3 energy=-0.9766245096779977 pbc="F F F"
F        0.00000000       0.00000000       0.00000000       0.00000000       0.00000000      -0.02307796
F        0.00000000       0.00000000       3.64848485       0.00000000       0.00000000       0.02307796
2
Properties=species:S:1:pos:R:3:forces:R:3 energy=-0.977424508198364 pbc="F F F"
F        0.00000000       0.00000000       0.00000000       0.00000000       0.00000000      -0.00430456
F        0.00000000       0.00000000       3.70727273       0.00000000       0.00000000       0.00430456
2
Properties=species:S:1:pos:R:3:forces:R:3 energy=-0.9771633475259082 pbc="F F F"
F        0.00000000       0.00000000       0.00000000       0.00000000       0.00000000       0.01283663
F        0.00000000       0.00000000       3.76606061       0.00000000       0.00000000      -0.01283663
2
Properties=species:S:1:pos:R:3:forces:R:3 energy=-0.9759642617436248 pbc="F F F"
F        0.00000000       0.00000000       0.00000000       0.00000000       0.00000000       0.02746240
F        0.00000000       0.00000000       3.82484848       0.00000000       0.00000000      -0.02746240
2
Properties=species:S:1:pos:R:3:forces:R:3 energy=-0.973994368723216 pbc="F F F"
F        0.00000000       0.00000000       0.00000000       0.00000000       0.00000000       0.03902220
F        0.00000000       0.00000000       3.88363636       0.00000000       0.00000000      -0.03902220
2
Properties=species:S:1:pos:R:3:forces:R:3 energy=-0.9714391246790828 pbc="F F F"
F        0.00000000       0.00000000       0.00000000       0.00000000       0.00000000       0.04738928
F        0.00000000       0.00000000       3.94242424       0.00000000       0.00000000      -0.04738928
2
Properties=species:S:1:pos:R:3:forces:R:3 energy=-0.9684807604531764 pbc="F F F"
F        0.00000000       0.00000000       0.00000000       0.00000000       0.00000000       0.05282466
F        0.00000000       0.00000000       4.00121212       0.00000000       0.00000000      -0.05282466
2
Properties=species:S:1:pos:R:3:forces:R:3 energy=-0.9652758280859352 pbc="F F F"
F        0.00000000       0.00000000       0.00000000       0.00000000       0.00000000       0.05585068
F        0.00000000       0.00000000       4.06000000       0.00000000       0.00000000      -0.05585068
2
Properties=species:S:1:pos:R:3:forces:R:3 energy=-0.9619488949992483 pbc="F F F"
F        0.00000000       0.00000000       0.00000000       0.00000000       0.00000000       0.05709107
F        0.00000000       0.00000000       4.11878788       0.00000000       0.00000000      -0.05709107
2
Properties=species:S:1:pos:R:3:forces:R:3 energy=-0.9585867162045126 pbc="F F F"
F        0.00000000       0.00000000       0.00000000       0.00000000       0.00000000       0.05713378
F        0.00000000       0.00000000       4.17757576       0.00000000       0.00000000      -0.05713378
2
Properties=species:S:1:pos:R:3:forces:R:3 energy=-0.9552447414053403 pbc="F F F"
F        0.00000000       0.00000000       0.00000000       0.00000000       0.00000000       0.05647691
F        0.00000000       0.00000000       4.23636364       0.00000000       0.00000000      -0.05647691
2
Properties=species:S:1:pos:R:3:forces:R:3 energy=-0.9519518297041627 pbc="F F F"
F        0.00000000       0.00000000       0.00000000       0.00000000       0.00000000       0.05553132
F        0.00000000       0.00000000       4.29515152       0.00000000       0.00000000      -0.05553132
2
Properties=species:S:1:pos:R:3:forces:R:3 energy=-0.9487146701463937 pbc="F F F"
F        0.00000000       0.00000000       0.00000000       0.00000000       0.00000000       0.05464080
F        0.00000000       0.00000000       4.35393939       0.00000000       0.00000000      -0.05464080
2
Properties=species:S:1:pos:R:3:forces:R:3 energy=-0.9455205247715196 pbc="F F F"
F        0.00000000       0.00000000       0.00000000       0.00000000       0.00000000       0.05409011
F        0.00000000       0.00000000       4.41272727       0.00000000       0.00000000      -0.05409011
2
Properties=species:S:1:pos:R:3:forces:R:3 energy=-0.9423440905223345 pbc="F F F"
F        0.00000000       0.00000000       0.00000000       0.00000000       0.00000000       0.05409607
F        0.00000000       0.00000000       4.47151515       0.00000000       0.00000000      -0.05409607
2
Properties=species:S:1:pos:R:3:forces:R:3 energy=-0.9391469633476064 pbc="F F F"
F        0.00000000       0.00000000       0.00000000       0.00000000       0.00000000       0.05477985
F        0.00000000       0.00000000       4.53030303       0.00000000       0.00000000      -0.05477985
2
Properties=species:S:1:pos:R:3:forces:R:3 energy=-0.935889918639796 pbc="F F F"
F        0.00000000       0.00000000       0.00000000       0.00000000       0.00000000       0.05612247
F        0.00000000       0.00000000       4.58909091       0.00000000       0.00000000      -0.05612247
2
Properties=species:S:1:pos:R:3:forces:R:3 energy=-0.9325392325942186 pbc="F F F"
F        0.00000000       0.00000000       0.00000000       0.00000000       0.00000000       0.05792083
F        0.00000000       0.00000000       4.64787879       0.00000000       0.00000000      -0.05792083
2
Properties=species:S:1:pos:R:3:forces:R:3 energy=-0.9290787800215425 pbc="F F F"
F        0.00000000       0.00000000       0.00000000       0.00000000       0.00000000       0.05976161
F        0.00000000       0.00000000       4.70666667       0.00000000       0.00000000      -0.05976161
2
Properties=species:S:1:pos:R:3:forces:R:3 energy=-0.9255232685093207 pbc="F F F"
F        0.00000000       0.00000000       0.00000000       0.00000000       0.00000000       0.06106416
F        0.00000000       0.00000000       4.76545455       0.00000000       0.00000000      -0.06106416
2
Properties=species:S:1:pos:R:3:forces:R:3 energy=-0.9219216947984264 pbc="F F F"
F        0.00000000       0.00000000       0.00000000       0.00000000       0.00000000       0.06120954
F        0.00000000       0.00000000       4.82424242       0.00000000       0.00000000      -0.06120954
2
Properties=species:S:1:pos:R:3:forces:R:3 energy=-0.9183581195444412 pbc="F F F"
F        0.00000000       0.00000000       0.00000000       0.00000000       0.00000000       0.05975922
F        0.00000000       0.00000000       4.88303030       0.00000000       0.00000000      -0.05975922
2
Properties=species:S:1:pos:R:3:forces:R:3 energy=-0.914927824222314 pbc="F F F"
F        0.00000000       0.00000000       0.00000000       0.00000000       0.00000000       0.05668757
F        0.00000000       0.00000000       4.94181818       0.00000000       0.00000000      -0.05668757
2
Properties=species:S:1:pos:R:3:forces:R:3 energy=-0.9117141841282104 pbc="F F F"
F        0.00000000       0.00000000       0.00000000       0.00000000       0.00000000       0.05254038
F        0.00000000       0.00000000       5.00060606       0.00000000       0.00000000      -0.05254038
2
Properties=species:S:1:pos:R:3:forces:R:3 energy=-0.9087508196528179 pbc="F F F"
F        0.00000000       0.00000000       0.00000000       0.00000000       0.00000000       0.04836394
F        0.00000000       0.00000000       5.05939394       0.00000000       0.00000000      -0.04836394
2
Properties=species:S:1:pos:R:3:forces:R:3 energy=-0.9060052029004011 pbc="F F F"
F        0.00000000       0.00000000       0.00000000       0.00000000       0.00000000       0.04532284
F        0.00000000       0.00000000       5.11818182       0.00000000       0.00000000      -0.04532284
2
Properties=species:S:1:pos:R:3:forces:R:3 energy=-0.9033867632027808 pbc="F F F"
F        0.00000000       0.00000000       0.00000000       0.00000000       0.00000000       0.04404499
F        0.00000000       0.00000000       5.17696970       0.00000000       0.00000000      -0.04404499
2
Properties=species:S:1:pos:R:3:forces:R:3 energy=-0.9008014856916583 pbc="F F F"
F        0.00000000       0.00000000       0.00000000       0.00000000       0.00000000       0.04400804
F        0.00000000       0.00000000       5.23575758       0.00000000       0.00000000      -0.04400804
2
Properties=species:S:1:pos:R:3:forces:R:3 energy=-0.8982200361160289 pbc="F F F"
F        0.00000000       0.00000000       0.00000000       0.00000000       0.00000000       0.04360342
F        0.00000000       0.00000000       5.29454545       0.00000000       0.00000000      -0.04360342
2
Properties=species:S:1:pos:R:3:forces:R:3 energy=-0.8957055978199506 pbc="F F F"
F        0.00000000       0.00000000       0.00000000       0.00000000       0.00000000       0.04173844
F        0.00000000       0.00000000       5.35333333       0.00000000       0.00000000      -0.04173844
2
Properties=species:S:1:pos:R:3:forces:R:3 energy=-0.8933034221084017 pbc="F F F"
F        0.00000000       0.00000000       0.00000000       0.00000000       0.00000000       0.04044154
F        0.00000000       0.00000000       5.41212121       0.00000000       0.00000000      -0.04044154
2
Properties=species:S:1:pos:R:3:forces:R:3 energy=-0.8908707162198617 pbc="F F F"
F        0.00000000       0.00000000       0.00000000       0.00000000       0.00000000       0.04290973
F        0.00000000       0.00000000       5.47090909       0.00000000       0.00000000      -0.04290973
2
Properties=species:S:1:pos:R:3:forces:R:3 energy=-0.8882564104894789 pbc="F F F"
F        0.00000000       0.00000000       0.00000000       0.00000000       0.00000000       0.04536477
F        0.00000000       0.00000000       5.52969697       0.00000000       0.00000000      -0.04536477
2
Properties=species:S:1:pos:R:3:forces:R:3 energy=-0.8856499640002128 pbc="F F F"
F        0.00000000       0.00000000       0.00000000       0.00000000       0.00000000       0.04241492
F        0.00000000       0.00000000       5.58848485       0.00000000       0.00000000      -0.04241492
2
Properties=species:S:1:pos:R:3:forces:R:3 energy=-0.8833318588220936 pbc="F F F"
F        0.00000000       0.00000000       0.00000000       0.00000000       0.00000000       0.03642388
F        0.00000000       0.00000000       5.64727273       0.00000000       0.00000000      -0.03642388
2
Properties=species:S:1:pos:R:3:forces:R:3 energy=-0.8813254487747434 pbc="F F F"
F        0.00000000       0.00000000       0.00000000       0.00000000       0.00000000       0.03247193
F        0.00000000       0.00000000       5.70606061       0.00000000       0.00000000      -0.03247193
2
Properties=species:S:1:pos:R:3:forces:R:3 energy=-0.8794536430980767 pbc="F F F"
F        0.00000000       0.00000000       0.00000000       0.00000000       0.00000000       0.03099618
F        0.00000000       0.00000000       5.76484848       0.00000000       0.00000000      -0.03099618
2
Properties=species:S:1:pos:R:3:forces:R:3 energy=-0.8777709203979115 pbc="F F F"
F        0.00000000       0.00000000       0.00000000       0.00000000       0.00000000       0.02511551
F        0.00000000       0.00000000       5.82363636       0.00000000       0.00000000      -0.02511551
2
Properties=species:S:1:pos:R:3:forces:R:3 energy=-0.8766154223135477 pbc="F F F"
F        0.00000000       0.00000000       0.00000000       0.00000000       0.00000000       0.01395033
F        0.00000000       0.00000000       5.88242424       0.00000000       0.00000000      -0.01395033
2
Properties=species:S:1:pos:R:3:forces:R:3 energy=-0.8761071421990178 pbc="F F F"
F        0.00000000       0.00000000       0.00000000       0.00000000       0.00000000       0.00397536
F        0.00000000       0.00000000       5.94121212       0.00000000       0.00000000      -0.00397536
2
Properties=species:S:1:pos:R:3:forces:R:3 energy=-0.8760239466328749 pbc="F F F"
F        0.00000000       0.00000000       0.00000000       0.00000000       0.00000000       0.00013400
F        0.00000000       0.00000000       6.00000000       0.00000000       0.00000000      -0.00013400
