2
Properties=species:S:1:pos:R:3:forces:R:3 energy=26.544107799364408 pbc="F F F"
H        0.00000000       0.00000000       0.00000000       0.00000000       0.00000000    -244.46229553
H        0.00000000       0.00000000       0.18000000       0.00000000       0.00000000     244.46229553
2
Properties=species:S:1:pos:R:3:forces:R:3 energy=14.301664715043588 pbc="F F F"
H        0.00000000       0.00000000       0.00000000       0.00000000       0.00000000    -195.38244629
H        0.00000000       0.00000000       0.23878788       0.00000000       0.00000000     195.38244629
2
Properties=species:S:1:pos:R:3:forces:R:3 energy=7.819674855498865 pbc="F F F"
H        0.00000000       0.00000000       0.00000000       0.00000000       0.00000000     -84.44128418
H        0.00000000       0.00000000       0.29757576       0.00000000       0.00000000      84.44128418
2
Properties=species:S:1:pos:R:3:forces:R:3 energy=1.8361662713871638 pbc="F F F"
H        0.00000000       0.00000000       0.00000000       0.00000000       0.00000000     -86.70038605
H        0.00000000       0.00000000       0.35636364       0.00000000       0.00000000      86.70038605
2
Properties=species:S:1:pos:R:3:forces:R:3 energy=-1.8036531058984078 pbc="F F F"
H        0.00000000       0.00000000       0.00000000       0.00000000       0.00000000     -47.22896957
H        0.00000000       0.00000000       0.41515152       0.00000000       0.00000000      47.22896957
2
Properties=species:S:1:pos:R:3:forces:R:3 energy=-4.019443125775617 pbc="F F F"
H        0.00000000       0.00000000       0.00000000       0.00000000       0.00000000     -29.02597427
H        0.00000000       0.00000000       0.47393939       0.00000000       0.00000000      29.02597427
2
Properties=species:S:1:pos:R:3:forces:R:3 energy=-5.358352752970631 pbc="F F F"
H        0.00000000       0.00000000       0.00000000       0.00000000       0.00000000     -17.41096878
H        0.00000000       0.00000000       0.53272727       0.00000000       0.00000000      17.41096878
2
Properties=species:S:1:pos:R:3:forces:R:3 energy=-6.1419847955283275 pbc="F F F"
H        0.00000000       0.00000000       0.00000000       0.00000000       0.00000000      -9.75031853
H        0.00000000       0.00000000       0.59151515       0.00000000       0.00000000       9.75031853
2
Properties=species:S:1:pos:R:3:forces:R:3 energy=-6.561620325297398 pbc="F F F"
H        0.00000000       0.00000000       0.00000000       0.00000000       0.00000000      -4.88765574
H        0.00000000       0.00000000       0.65030303       0.00000000       0.00000000       4.88765574
2
Properties=species:S:1:pos:R:3:forces:R:3 energy=-6.744764917878975 pbc="F F F"
H        0.00000000       0.00000000       0.00000000       0.00000000       0.00000000      -1.57231271
H        0.00000000       0.00000000       0.70909091       0.00000000       0.00000000       1.57231271
2
Properties=species:S:1:pos:R:3:forces:R:3 energy=-6.769428924664442 pbc="F F F"
H        0.00000000       0.00000000       0.00000000       0.00000000       0.00000000       0.58158827
H        0.00000000       0.00000000       0.76787879       0.00000000       0.00000000      -0.58158827
2
Properties=species:S:1:pos:R:3:forces:R:3 energy=-6.689928723696059 pbc="F F F"
H        0.00000000       0.00000000       0.00000000       0.00000000       0.00000000       2.03480983
H        0.00000000       0.00000000       0.82666667       0.00000000       0.00000000      -2.03480983
2
Properties=species:S:1:pos:R:3:forces:R:3 energy=-6.537994975933097 pbc="F F F"
H        0.00000000       0.00000000       0.00000000       0.00000000       0.00000000       3.08776450
H        0.00000000       0.00000000       0.88545455       0.00000000       0.00000000      -3.08776450
2
Properties=species:S:1:pos:R:3:forces:R:3 energy=-6.332513105119425 pbc="F F F"
H        0.00000000       0.00000000       0.00000000       0.00000000       0.00000000       3.84771085
H        0.00000000       0.00000000       0.94424242       0.00000000       0.00000000      -3.84771085
2
Properties=species:S:1:pos:R:3:forces:R:3 energy=-6.0920378607162915 pbc="F F F"
H        0.00000000       0.00000000       0.00000000       0.00000000       0.00000000       4.28485632
H        0.00000000       0.00000000       1.00303030       0.00000000       0.00000000      -4.28485632
2
Properties=species:S:1:pos:R:3:forces:R:3 energy=-5.8329150704683705 pbc="F F F"
H        0.00000000       0.00000000       0.00000000       0.00000000       0.00000000       4.50915432
H        0.00000000       0.00000000       1.06181818       0.00000000       0.00000000      -4.50915432
2
Properties=species:S:1:pos:R:3:forces:R:3 energy=-5.563092615480236 pbc="F F F"
H        0.00000000       0.00000000       0.00000000       0.00000000       0.00000000       4.66765070
H        0.00000000       0.00000000       1.12060606       0.00000000       0.00000000      -4.66765070
2
Properties=species:S:1:pos:R:3:forces:R:3 energy=-5.283980394687022 pbc="F F F"
H        0.00000000       0.00000000       0.00000000       0.00000000       0.00000000       4.83132124
H        0.00000000       0.00000000       1.17939394       0.00000000       0.00000000      -4.83132124
2
Properties=species:S:1:pos:R:3:forces:R:3 energy=-4.994559522060466 pbc="F F F"
H        0.00000000       0.00000000       0.00000000       0.00000000       0.00000000       5.01835489
H        0.00000000       0.00000000       1.23818182       0.00000000       0.00000000      -5.01835489
2
Properties=species:S:1:pos:R:3:forces:R:3 energy=-4.694016257443535 pbc="F F F"
H        0.00000000       0.00000000       0.00000000       0.00000000       0.00000000       5.19919920
H        0.00000000       0.00000000       1.29696970       0.00000000       0.00000000      -5.19919920
2
Properties=species:S:1:pos:R:3:forces:R:3 energy=-4.385176035860909 pbc="F F F"
H        0.00000000       0.00000000       0.00000000       0.00000000       0.00000000       5.28205109
H        0.00000000       0.00000000       1.35575758       0.00000000       0.00000000      -5.28205109
2
Properties=species:S:1:pos:R:3:forces:R:3 energy=-4.076773903293299 pbc="F F F"
H        0.00000000       0.00000000       0.00000000       0.00000000       0.00000000       5.17361021
H        0.00000000       0.00000000       1.41454545       0.00000000       0.00000000      -5.17361021
2
Properties=species:S:1:pos:R:3:forces:R:3 energy=-3.78114418790099 pbc="F F F"
H        0.00000000       0.00000000       0.00000000       0.00000000       0.00000000       4.85050344
H        0.00000000       0.00000000       1.47333333       0.00000000       0.00000000      -4.85050344
2
Properties=species:S:1:pos:R:3:forces:R:3 energy=-3.5097231422181094 pbc="F F F"
H        0.00000000       0.00000000       0.00000000       0.00000000       0.00000000       4.36233711
H        0.00000000       0.00000000       1.53212121       0.00000000       0.00000000      -4.36233711
2
Properties=species:S:1:pos:R:3:forces:R:3 energy=-3.2698978392364593 pbc="F F F"
H        0.00000000       0.00000000       0.00000000       0.00000000       0.00000000       3.78894424
H        0.00000000       0.00000000       1.59090909       0.00000000       0.00000000      -3.78894424
2
Properties=species:S:1:pos:R:3:forces:R:3 energy=-3.0644819267760077 pbc="F F F"
H        0.00000000       0.00000000       0.00000000       0.00000000       0.00000000       3.20202827
H        0.00000000       0.00000000       1.64969697       0.00000000       0.00000000      -3.20202827
2
Properties=species:S:1:pos:R:3:forces:R:3 energy=-2.8927308292378333 pbc="F F F"
H        0.00000000       0.00000000       0.00000000       0.00000000       0.00000000       2.64953423
H        0.00000000       0.00000000       1.70848485       0.00000000       0.00000000      -2.64953423
2
Properties=species:S:1:pos:R:3:forces:R:3 energy=-2.751787530935067 pbc="F F F"
H        0.00000000       0.00000000       0.00000000       0.00000000       0.00000000       2.15632772
H        0.00000000       0.00000000       1.76727273       0.00000000       0.00000000      -2.15632772
2
Properties=species:S:1:pos:R:3:forces:R:3 energy=-2.6378608684292515 pbc="F F F"
H        0.00000000       0.00000000       0.00000000       0.00000000       0.00000000       1.73100209
H        0.00000000       0.00000000       1.82606061       0.00000000       0.00000000      -1.73100209
2
Properties=species:S:1:pos:R:3:forces:R:3 energy=-2.546952188781781 pbc="F F F"
H        0.00000000       0.00000000       0.00000000       0.00000000       0.00000000       1.37256777
H        0.00000000       0.00000000       1.88484848       0.00000000       0.00000000      -1.37256777
2
Properties=species:S:1:pos:R:3:forces:R:3 energy=-2.4752817227527975 pbc="F F F"
H        0.00000000       0.00000000       0.00000000       0.00000000       0.00000000       1.07532740
H        0.00000000       0.00000000       1.94363636       0.00000000       0.00000000      -1.07532740
2
Properties=species:S:1:pos:R:3:forces:R:3 energy=-2.4194682985568563 pbc="F F F"
H        0.00000000       0.00000000       0.00000000       0.00000000       0.00000000       0.83178198
H        0.00000000       0.00000000       2.00242424       0.00000000       0.00000000      -0.83178198
2
Properties=species:S:1:pos:R:3:forces:R:3 energy=-2.376582328600243 pbc="F F F"
H        0.00000000       0.00000000       0.00000000       0.00000000       0.00000000       0.63420051
H        0.00000000       0.00000000       2.06121212       0.00000000       0.00000000      -0.63420051
2
Properties=species:S:1:pos:R:3:forces:R:3 energy=-2.344142234786196 pbc="F F F"
H        0.00000000       0.00000000       0.00000000       0.00000000       0.00000000       0.47535953
H        0.00000000       0.00000000       2.12000000       0.00000000       0.00000000      -0.47535953
2
Properties=species:S:1:pos:R:3:forces:R:3 energy=-2.320060112045583 pbc="F F F"
H        0.00000000       0.00000000       0.00000000       0.00000000       0.00000000       0.34880793
H        0.00000000       0.00000000       2.17878788       0.00000000       0.00000000      -0.34880793
2
Properties=species:S:1:pos:R:3:forces:R:3 energy=-2.302608132304069 pbc="F F F"
H        0.00000000       0.00000000       0.00000000       0.00000000       0.00000000       0.24897002
H        0.00000000       0.00000000       2.23757576       0.00000000       0.00000000      -0.24897002
2
Properties=species:S:1:pos:R:3:forces:R:3 energy=-2.290358487154826 pbc="F F F"
H        0.00000000       0.00000000       0.00000000       0.00000000       0.00000000       0.17108139
H        0.00000000       0.00000000       2.29636364       0.00000000       0.00000000      -0.17108139
2
Properties=species:S:1:pos:R:3:forces:R:3 energy=-2.282142172726595 pbc="F F F"
H        0.00000000       0.00000000       0.00000000       0.00000000       0.00000000       0.11113514
H        0.00000000       0.00000000       2.35515152       0.00000000       0.00000000      -0.11113514
2
Properties=species:S:1:pos:R:3:forces:R:3 energy=-2.2770056153212845 pbc="F F F"
H        0.00000000       0.00000000       0.00000000       0.00000000       0.00000000       0.06578493
H        0.00000000       0.00000000       2.41393939       0.00000000       0.00000000      -0.06578493
2
Properties=species:S:1:pos:R:3:forces:R:3 energy=-2.274175412390755 pbc="F F F"
H        0.00000000       0.00000000       0.00000000       0.00000000       0.00000000       0.03227535
H        0.00000000       0.00000000       2.47272727       0.00000000       0.00000000      -0.03227535
2
Properties=species:S:1:pos:R:3:forces:R:3 energy=-2.2730237808497815 pbc="F F F"
H        0.00000000       0.00000000       0.00000000       0.00000000       0.00000000       0.00834322
H        0.00000000       0.00000000       2.53151515       0.00000000       0.00000000      -0.00834322
2
Properties=species:S:1:pos:R:3:forces:R:3 energy=-2.2730430732145774 pbc="F F F"
H        0.00000000       0.00000000       0.00000000       0.00000000       0.00000000      -0.00785145
H        0.00000000       0.00000000       2.59030303       0.00000000       0.00000000       0.00785145
2
Properties=species:S:1:pos:R:3:forces:R:3 energy=-2.2738247809287238 pbc="F F F"
H        0.00000000       0.00000000       0.00000000       0.00000000       0.00000000      -0.01780455
H        0.00000000       0.00000000       2.64909091       0.00000000       0.00000000       0.01780455
2
Properties=species:S:1:pos:R:3:forces:R:3 energy=-2.2750385737230725 pbc="F F F"
H        0.00000000       0.00000000       0.00000000       0.00000000       0.00000000      -0.02275264
H        0.00000000       0.00000000       2.70787879       0.00000000       0.00000000       0.02275264
2
Properties=species:S:1:pos:R:3:forces:R:3 energy=-2.276422495151652 pbc="F F F"
H        0.00000000       0.00000000       0.00000000       0.00000000       0.00000000      -0.02373865
H        0.00000000       0.00000000       2.76666667       0.00000000       0.00000000       0.02373865
2
Properties=species:S:1:pos:R:3:forces:R:3 energy=-2.2777700808607912 pbc="F F F"
H        0.00000000       0.00000000       0.00000000       0.00000000       0.00000000      -0.02167985
H        0.00000000       0.00000000       2.82545455       0.00000000       0.00000000       0.02167985
2
Properties=species:S:1:pos:R:3:forces:R:3 energy=-2.278928169264357 pbc="F F F"
H        0.00000000       0.00000000       0.00000000       0.00000000       0.00000000      -0.01740785
H        0.00000000       0.00000000       2.88424242       0.00000000       0.00000000       0.01740785
2
Properties=species:S:1:pos:R:3:forces:R:3 energy=-2.279788755318308 pbc="F F F"
H        0.00000000       0.00000000       0.00000000       0.00000000       0.00000000      -0.01169240
H        0.00000000       0.00000000       2.94303030       0.00000000       0.00000000       0.01169240
2
Properties=species:S:1:pos:R:3:forces:R:3 energy=-2.2802882261637154 pbc="F F F"
H        0.00000000       0.00000000       0.00000000       0.00000000       0.00000000      -0.00523803
H        0.00000000       0.00000000       3.00181818       0.00000000       0.00000000       0.00523803
2
Properties=species:S:1:pos:R:3:forces:R:3 energy=-2.2804020684006887 pbc="F F F"
H        0.00000000       0.00000000       0.00000000       0.00000000       0.00000000       0.00134211
H        0.00000000       0.00000000       3.06060606       0.00000000       0.00000000      -0.00134211
2
Properties=species:S:1:pos:R:3:forces:R:3 energy=-2.280137900492585 pbc="F F F"
H        0.00000000       0.00000000       0.00000000       0.00000000       0.00000000       0.00755774
H        0.00000000       0.00000000       3.11939394       0.00000000       0.00000000      -0.00755774
2
Properties=species:S:1:pos:R:3:forces:R:3 energy=-2.27952756891892 pbc="F F F"
H        0.00000000       0.00000000       0.00000000       0.00000000       0.00000000       0.01306639
H        0.00000000       0.00000000       3.17818182       0.00000000       0.00000000      -0.01306639
2
Properties=species:S:1:pos:R:3:forces:R:3 energy=-2.278618995416292 pbc="F F F"
H        0.00000000       0.00000000       0.00000000       0.00000000       0.00000000       0.01768064
H        0.00000000       0.00000000       3.23696970       0.00000000       0.00000000      -0.01768064
2
Properties=species:S:1:pos:R:3:forces:R:3 energy=-2.277467334108155 pbc="F F F"
H        0.00000000       0.00000000       0.00000000       0.00000000       0.00000000       0.02134698
H        0.00000000       0.00000000       3.29575758       0.00000000       0.00000000      -0.02134698
2
Properties=species:S:1:pos:R:3:forces:R:3 energy=-2.2761273280530774 pbc="F F F"
H        0.00000000       0.00000000       0.00000000       0.00000000       0.00000000       0.02409951
H        0.00000000       0.00000000       3.35454545       0.00000000       0.00000000      -0.02409951
2
Properties=species:S:1:pos:R:3:forces:R:3 energy=-2.2746502010917014 pbc="F F F"
H        0.00000000       0.00000000       0.00000000       0.00000000       0.00000000       0.02601123
H        0.00000000       0.00000000       3.41333333       0.00000000       0.00000000      -0.02601123
2
Properties=species:S:1:pos:R:3:forces:R:3 energy=-2.273083900819067 pbc="F F F"
H        0.00000000       0.00000000       0.00000000       0.00000000       0.00000000       0.02715362
H        0.00000000       0.00000000       3.47212121       0.00000000       0.00000000      -0.02715362
2
Properties=species:S:1:pos:R:3:forces:R:3 energy=-2.27147191678714 pbc="F F F"
H        0.00000000       0.00000000       0.00000000       0.00000000       0.00000000       0.02758126
H        0.00000000       0.00000000       3.53090909       0.00000000       0.00000000      -0.02758126
2
Properties=species:S:1:pos:R:3:forces:R:3 energy=-2.2698542504142143 pbc="F F F"
H        0.00000000       0.00000000       0.00000000       0.00000000       0.00000000       0.02734614
H        0.00000000       0.00000000       3.58969697       0.00000000       0.00000000      -0.02734614
2
Properties=species:S:1:pos:R:3:forces:R:3 energy=-2.2682679083541446 pbc="F F F"
H        0.00000000       0.00000000       0.00000000       0.00000000       0.00000000       0.02653075
H        0.00000000       0.00000000       3.64848485       0.00000000       0.00000000      -0.02653075
2
Properties=species:S:1:pos:R:3:forces:R:3 energy=-2.2667431115577443 pbc="F F F"
H        0.00000000       0.00000000       0.00000000       0.00000000       0.00000000       0.02528458
H        0.00000000       0.00000000       3.70727273       0.00000000       0.00000000      -0.02528458
2
Properties=species:S:1:pos:R:3:forces:R:3 energy=-2.2652990210623907 pbc="F F F"
H        0.00000000       0.00000000       0.00000000       0.00000000       0.00000000       0.02384352
H        0.00000000       0.00000000       3.76606061       0.00000000       0.00000000      -0.02384352
2
Properties=species:S:1:pos:R:3:forces:R:3 energy=-2.263937559303835 pbc="F F F"
H        0.00000000       0.00000000       0.00000000       0.00000000       0.00000000       0.02252166
H        0.00000000       0.00000000       3.82484848       0.00000000       0.00000000      -0.02252166
2
Properties=species:S:1:pos:R:3:forces:R:3 energy=-2.2626417595991124 pbc="F F F"
H        0.00000000       0.00000000       0.00000000       0.00000000       0.00000000       0.02166693
H        0.00000000       0.00000000       3.88363636       0.00000000       0.00000000      -0.02166693
2
Properties=species:S:1:pos:R:3:forces:R:3 energy=-2.2613748274203895 pbc="F F F"
H        0.00000000       0.00000000       0.00000000       0.00000000       0.00000000       0.02157912
H        0.00000000       0.00000000       3.94242424       0.00000000       0.00000000      -0.02157912
2
Properties=species:S:1:pos:R:3:forces:R:3 energy=-2.2600865907638643 pbc="F F F"
H        0.00000000       0.00000000       0.00000000       0.00000000       0.00000000       0.02240378
H        0.00000000       0.00000000       4.00121212       0.00000000       0.00000000      -0.02240378
2
Properties=species:S:1:pos:R:3:forces:R:3 energy=-2.2587247175043283 pbc="F F F"
H        0.00000000       0.00000000       0.00000000       0.00000000       0.00000000       0.02403719
H        0.00000000       0.00000000       4.06000000       0.00000000       0.00000000      -0.02403719
2
Properties=species:S:1:pos:R:3:forces:R:3 energy=-2.257252127277031 pbc="F F F"
H        0.00000000       0.00000000       0.00000000       0.00000000       0.00000000       0.02608676
H        0.00000000       0.00000000       4.11878788       0.00000000       0.00000000      -0.02608676
2
Properties=species:S:1:pos:R:3:forces:R:3 energy=-2.2556615445144703 pbc="F F F"
H        0.00000000       0.00000000       0.00000000       0.00000000       0.00000000       0.02792850
H        0.00000000       0.00000000       4.17757576       0.00000000       0.00000000      -0.02792850
2
Properties=species:S:1:pos:R:3:forces:R:3 energy=-2.2539859932691257 pbc="F F F"
H        0.00000000       0.00000000       0.00000000       0.00000000       0.00000000       0.02886663
H        0.00000000       0.00000000       4.23636364       0.00000000       0.00000000      -0.02886663
2
Properties=species:S:1:pos:R:3:forces:R:3 energy=-2.252296178469872 pbc="F F F"
H        0.00000000       0.00000000       0.00000000       0.00000000       0.00000000       0.02834177
H        0.00000000       0.00000000       4.29515152       0.00000000       0.00000000      -0.02834177
2
Properties=species:S:1:pos:R:3:forces:R:3 energy=-2.250687138144344 pbc="F F F"
H        0.00000000       0.00000000       0.00000000       0.00000000       0.00000000       0.02612482
H        0.00000000       0.00000000       4.35393939       0.00000000       0.00000000      -0.02612482
2
Properties=species:S:1:pos:R:3:forces:R:3 energy=-2.249254163736413 pbc="F F F"
H        0.00000000       0.00000000       0.00000000       0.00000000       0.00000000       0.02242669
H        0.00000000       0.00000000       4.41272727       0.00000000       0.00000000      -0.02242669
2
Properties=species:S:1:pos:R:3:forces:R:3 energy=-2.2480672930800125 pbc="F F F"
H        0.00000000       0.00000000       0.00000000       0.00000000       0.00000000       0.01787329
H        0.00000000       0.00000000       4.47151515       0.00000000       0.00000000      -0.01787329
2
Properties=species:S:1:pos:R:3:forces:R:3 energy=-2.247152234437949 pbc="F F F"
H        0.00000000       0.00000000       0.00000000       0.00000000       0.00000000       0.01333307
H        0.00000000       0.00000000       4.53030303       0.00000000       0.00000000      -0.01333307
2
Properties=species:S:1:pos:R:3:forces:R:3 energy=-2.2464829777038275 pbc="F F F"
H        0.00000000       0.00000000       0.00000000       0.00000000       0.00000000       0.00963882
H        0.00000000       0.00000000       4.58909091       0.00000000       0.00000000      -0.00963882
2
Properties=species:S:1:pos:R:3:forces:R:3 energy=-2.245991807833881 pbc="F F F"
H        0.00000000       0.00000000       0.00000000       0.00000000       0.00000000       0.00731062
H        0.00000000       0.00000000       4.64787879       0.00000000       0.00000000      -0.00731062
2
Properties=species:S:1:pos:R:3:forces:R:3 energy=-2.245595528910786 pbc="F F F"
H        0.00000000       0.00000000       0.00000000       0.00000000       0.00000000       0.00638115
H        0.00000000       0.00000000       4.70666667       0.00000000       0.00000000      -0.00638115
2
Properties=species:S:1:pos:R:3:forces:R:3 energy=-2.245222406185555 pbc="F F F"
H        0.00000000       0.00000000       0.00000000       0.00000000       0.00000000       0.00642821
H        0.00000000       0.00000000       4.76545455       0.00000000       0.00000000      -0.00642821
2
Properties=species:S:1:pos:R:3:forces:R:3 energy=-2.2448338608565614 pbc="F F F"
H        0.00000000       0.00000000       0.00000000       0.00000000       0.00000000       0.00677811
H        0.00000000       0.00000000       4.82424242       0.00000000       0.00000000      -0.00677811
2
Properties=species:S:1:pos:R:3:forces:R:3 energy=-2.24443162230518 pbc="F F F"
H        0.00000000       0.00000000       0.00000000       0.00000000       0.00000000       0.00682148
H        0.00000000       0.00000000       4.88303030       0.00000000       0.00000000      -0.00682148
2
Properties=species:S:1:pos:R:3:forces:R:3 energy=-2.2440434207041675 pbc="F F F"
H        0.00000000       0.00000000       0.00000000       0.00000000       0.00000000       0.00628701
H        0.00000000       0.00000000       4.94181818       0.00000000       0.00000000      -0.00628701
2
Properties=species:S:1:pos:R:3:forces:R:3 energy=-2.243700337549633 pbc="F F F"
H        0.00000000       0.00000000       0.00000000       0.00000000       0.00000000       0.00535990
H        0.00000000       0.00000000       5.00060606       0.00000000       0.00000000      -0.00535990
2
Properties=species:S:1:pos:R:3:forces:R:3 energy=-2.2434101020377204 pbc="F F F"
H        0.00000000       0.00000000       0.00000000       0.00000000       0.00000000       0.00458688
H        0.00000000       0.00000000       5.05939394       0.00000000       0.00000000      -0.00458688
2
Properties=species:S:1:pos:R:3:forces:R:3 energy=-2.243145406623837 pbc="F F F"
H        0.00000000       0.00000000       0.00000000       0.00000000       0.00000000       0.00459850
H        0.00000000       0.00000000       5.11818182       0.00000000       0.00000000      -0.00459850
2
Properties=species:S:1:pos:R:3:forces:R:3 energy=-2.2428467678723685 pbc="F F F"
H        0.00000000       0.00000000       0.00000000       0.00000000       0.00000000       0.00575333
H        0.00000000       0.00000000       5.17696970       0.00000000       0.00000000      -0.00575333
2
Properties=species:S:1:pos:R:3:forces:R:3 energy=-2.2424499439745547 pbc="F F F"
H        0.00000000       0.00000000       0.00000000       0.00000000       0.00000000       0.00785912
H        0.00000000       0.00000000       5.23575758       0.00000000       0.00000000      -0.00785912
2
Properties=species:S:1:pos:R:3:forces:R:3 energy=-2.2419202654647217 pbc="F F F"
H        0.00000000       0.00000000       0.00000000       0.00000000       0.00000000       0.01008683
H        0.00000000       0.00000000       5.29454545       0.00000000       0.00000000      -0.01008683
2
Properties=species:S:1:pos:R:3:forces:R:3 energy=-2.2412860139822204 pbc="F F F"
H        0.00000000       0.00000000       0.00000000       0.00000000       0.00000000       0.01119681
H        0.00000000       0.00000000       5.35333333       0.00000000       0.00000000      -0.01119681
2
Properties=species:S:1:pos:R:3:forces:R:3 energy=-2.2406455737522344 pbc="F F F"
H        0.00000000       0.00000000       0.00000000       0.00000000       0.00000000       0.01023313
H        0.00000000       0.00000000       5.41212121       0.00000000       0.00000000      -0.01023313
2
Properties=species:S:1:pos:R:3:forces:R:3 energy=-2.2401121175473566 pbc="F F F"
H        0.00000000       0.00000000       0.00000000       0.00000000       0.00000000       0.00787137
H        0.00000000       0.00000000       5.47090909       0.00000000       0.00000000      -0.00787137
2
Properties=species:S:1:pos:R:3:forces:R:3 energy=-2.239685575848741 pbc="F F F"
H        0.00000000       0.00000000       0.00000000       0.00000000       0.00000000       0.00726939
H        0.00000000       0.00000000       5.52969697       0.00000000       0.00000000      -0.00726939
2
Properties=species:S:1:pos:R:3:forces:R:3 energy=-2.2391625139549864 pbc="F F F"
H        0.00000000       0.00000000       0.00000000       0.00000000       0.00000000       0.01129619
H        0.00000000       0.00000000       5.58848485       0.00000000       0.00000000      -0.01129619
2
Properties=species:S:1:pos:R:3:forces:R:3 energy=-2.2383139915491896 pbc="F F F"
H        0.00000000       0.00000000       0.00000000       0.00000000       0.00000000       0.01743263
H        0.00000000       0.00000000       5.64727273       0.00000000       0.00000000      -0.01743263
2
Properties=species:S:1:pos:R:3:forces:R:3 energy=-2.2371869233745745 pbc="F F F"
H        0.00000000       0.00000000       0.00000000       0.00000000       0.00000000       0.01995325
H        0.00000000       0.00000000       5.70606061       0.00000000       0.00000000      -0.01995325
2
Properties=species:S:1:pos:R:3:forces:R:3 energy=-2.2360766609865266 pbc="F F F"
H        0.00000000       0.00000000       0.00000000       0.00000000       0.00000000       0.01695520
H        0.00000000       0.00000000       5.76484848       0.00000000       0.00000000      -0.01695520
2
Properties=species:S:1:pos:R:3:forces:R:3 energy=-2.235250426569748 pbc="F F F"
H        0.00000000       0.00000000       0.00000000       0.00000000       0.00000000       0.01097148
H        0.00000000       0.00000000       5.82363636       0.00000000       0.00000000      -0.01097148
2
Properties=species:S:1:pos:R:3:forces:R:3 energy=-2.2347828035618327 pbc="F F F"
H        0.00000000       0.00000000       0.00000000       0.00000000       0.00000000       0.00524214
H        0.00000000       0.00000000       5.88242424       0.00000000       0.00000000      -0.00524214
2
Properties=species:S:1:pos:R:3:forces:R:3 energy=-2.2345965064530278 pbc="F F F"
H        0.00000000       0.00000000       0.00000000       0.00000000       0.00000000       0.00144232
H        0.00000000       0.00000000       5.94121212       0.00000000       0.00000000      -0.00144232
2
Properties=species:S:1:pos:R:3:forces:R:3 energy=-2.234564423170886 pbc="F F F"
H        0.00000000       0.00000000       0.00000000       0.00000000       0.00000000       0.00010019
H        0.00000000       0.00000000       6.00000000       0.00000000       0.00000000      -0.00010019
