2
Properties=species:S:1:pos:R:3:forces:R:3 energy=58.14430630057076 pbc="F F F"
He       0.00000000       0.00000000       0.00000000       0.00000000       0.00000000    -724.23022461
He       0.00000000       0.00000000       0.18000000       0.00000000       0.00000000     724.23022461
2
Properties=species:S:1:pos:R:3:forces:R:3 energy=28.66508686412324 pbc="F F F"
He       0.00000000       0.00000000       0.00000000       0.00000000       0.00000000    -341.27615356
He       0.00000000       0.00000000       0.23878788       0.00000000       0.00000000     341.27615356
2
Properties=species:S:1:pos:R:3:forces:R:3 energy=14.082529187088518 pbc="F F F"
He       0.00000000       0.00000000       0.00000000       0.00000000       0.00000000    -173.04833984
He       0.00000000       0.00000000       0.29757576       0.00000000       0.00000000     173.04833984
2
Properties=species:S:1:pos:R:3:forces:R:3 energy=6.714588763888565 pbc="F F F"
He       0.00000000       0.00000000       0.00000000       0.00000000       0.00000000     -85.16608429
He       0.00000000       0.00000000       0.35636364       0.00000000       0.00000000      85.16608429
2
Properties=species:S:1:pos:R:3:forces:R:3 energy=3.242338785285009 pbc="F F F"
He       0.00000000       0.00000000       0.00000000       0.00000000       0.00000000     -38.62759018
He       0.00000000       0.00000000       0.41515152       0.00000000       0.00000000      38.62759018
2
Properties=species:S:1:pos:R:3:forces:R:3 energy=1.7519064162273597 pbc="F F F"
He       0.00000000       0.00000000       0.00000000       0.00000000       0.00000000     -14.60981369
He       0.00000000       0.00000000       0.47393939       0.00000000       0.00000000      14.60981369
2
Properties=species:S:1:pos:R:3:forces:R:3 energy=1.3048615901942962 pbc="F F F"
He       0.00000000       0.00000000       0.00000000       0.00000000       0.00000000      -2.19140816
He       0.00000000       0.00000000       0.53272727       0.00000000       0.00000000       2.19140816
2
Properties=species:S:1:pos:R:3:forces:R:3 energy=1.3114522355641218 pbc="F F F"
He       0.00000000       0.00000000       0.00000000       0.00000000       0.00000000       1.70301664
He       0.00000000       0.00000000       0.59151515       0.00000000       0.00000000      -1.70301664
2
Properties=species:S:1:pos:R:3:forces:R:3 energy=1.5039450255533529 pbc="F F F"
He       0.00000000       0.00000000       0.00000000       0.00000000       0.00000000       4.84036732
He       0.00000000       0.00000000       0.65030303       0.00000000       0.00000000      -4.84036732
2
Properties=species:S:1:pos:R:3:forces:R:3 energy=1.8677262250385478 pbc="F F F"
He       0.00000000       0.00000000       0.00000000       0.00000000       0.00000000       7.28701210
He       0.00000000       0.00000000       0.70909091       0.00000000       0.00000000      -7.28701210
2
Properties=species:S:1:pos:R:3:forces:R:3 energy=2.311118184049374 pbc="F F F"
He       0.00000000       0.00000000       0.00000000       0.00000000       0.00000000       7.23635817
He       0.00000000       0.00000000       0.76787879       0.00000000       0.00000000      -7.23635817
2
Properties=species:S:1:pos:R:3:forces:R:3 energy=2.655289226270383 pbc="F F F"
He       0.00000000       0.00000000       0.00000000       0.00000000       0.00000000       4.09160423
He       0.00000000       0.00000000       0.82666667       0.00000000       0.00000000      -4.09160423
2
Properties=species:S:1:pos:R:3:forces:R:3 energy=2.7763344343699203 pbc="F F F"
He       0.00000000       0.00000000       0.00000000       0.00000000       0.00000000       0.09768550
He       0.00000000       0.00000000       0.88545455       0.00000000       0.00000000      -0.09768550
2
Properties=species:S:1:pos:R:3:forces:R:3 energy=2.686023373282551 pbc="F F F"
He       0.00000000       0.00000000       0.00000000       0.00000000       0.00000000      -2.96961045
He       0.00000000       0.00000000       0.94424242       0.00000000       0.00000000       2.96961045
2
Properties=species:S:1:pos:R:3:forces:R:3 energy=2.4512694485278232 pbc="F F F"
He       0.00000000       0.00000000       0.00000000       0.00000000       0.00000000      -4.81363630
He       0.00000000       0.00000000       1.00303030       0.00000000       0.00000000       4.81363630
2
Properties=species:S:1:pos:R:3:forces:R:3 energy=2.142281972180329 pbc="F F F"
He       0.00000000       0.00000000       0.00000000       0.00000000       0.00000000      -5.53362036
He       0.00000000       0.00000000       1.06181818       0.00000000       0.00000000       5.53362036
2
Properties=species:S:1:pos:R:3:forces:R:3 energy=1.8160152654067028 pbc="F F F"
He       0.00000000       0.00000000       0.00000000       0.00000000       0.00000000      -5.47007084
He       0.00000000       0.00000000       1.12060606       0.00000000       0.00000000       5.47007084
2
Properties=species:S:1:pos:R:3:forces:R:3 energy=1.5069744041844053 pbc="F F F"
He       0.00000000       0.00000000       0.00000000       0.00000000       0.00000000      -5.00108242
He       0.00000000       0.00000000       1.17939394       0.00000000       0.00000000       5.00108242
2
Properties=species:S:1:pos:R:3:forces:R:3 energy=1.2310328984824919 pbc="F F F"
He       0.00000000       0.00000000       0.00000000       0.00000000       0.00000000      -4.37392426
He       0.00000000       0.00000000       1.23818182       0.00000000       0.00000000       4.37392426
2
Properties=species:S:1:pos:R:3:forces:R:3 energy=0.9932262984801686 pbc="F F F"
He       0.00000000       0.00000000       0.00000000       0.00000000       0.00000000      -3.71813631
He       0.00000000       0.00000000       1.29696970       0.00000000       0.00000000       3.71813631
2
Properties=species:S:1:pos:R:3:forces:R:3 energy=0.7931607196377349 pbc="F F F"
He       0.00000000       0.00000000       0.00000000       0.00000000       0.00000000      -3.09736991
He       0.00000000       0.00000000       1.35575758       0.00000000       0.00000000       3.09736991
2
Properties=species:S:1:pos:R:3:forces:R:3 energy=0.6277800504097852 pbc="F F F"
He       0.00000000       0.00000000       0.00000000       0.00000000       0.00000000      -2.54103661
He       0.00000000       0.00000000       1.41454545       0.00000000       0.00000000       2.54103661
2
Properties=species:S:1:pos:R:3:forces:R:3 energy=0.49291713263020603 pbc="F F F"
He       0.00000000       0.00000000       0.00000000       0.00000000       0.00000000      -2.05984449
He       0.00000000       0.00000000       1.47333333       0.00000000       0.00000000       2.05984449
2
Properties=species:S:1:pos:R:3:forces:R:3 energy=0.38411258061676085 pbc="F F F"
He       0.00000000       0.00000000       0.00000000       0.00000000       0.00000000      -1.65391266
He       0.00000000       0.00000000       1.53212121       0.00000000       0.00000000       1.65391266
2
Properties=species:S:1:pos:R:3:forces:R:3 energy=0.29709042633539223 pbc="F F F"
He       0.00000000       0.00000000       0.00000000       0.00000000       0.00000000      -1.31767273
He       0.00000000       0.00000000       1.59090909       0.00000000       0.00000000       1.31767273
2
Properties=species:S:1:pos:R:3:forces:R:3 energy=0.22798227578616104 pbc="F F F"
He       0.00000000       0.00000000       0.00000000       0.00000000       0.00000000      -1.04291952
He       0.00000000       0.00000000       1.64969697       0.00000000       0.00000000       1.04291952
2
Properties=species:S:1:pos:R:3:forces:R:3 energy=0.1734369064498603 pbc="F F F"
He       0.00000000       0.00000000       0.00000000       0.00000000       0.00000000      -0.82072926
He       0.00000000       0.00000000       1.70848485       0.00000000       0.00000000       0.82072926
2
Properties=species:S:1:pos:R:3:forces:R:3 energy=0.13062403460894745 pbc="F F F"
He       0.00000000       0.00000000       0.00000000       0.00000000       0.00000000      -0.64250809
He       0.00000000       0.00000000       1.76727273       0.00000000       0.00000000       0.64250809
2
Properties=species:S:1:pos:R:3:forces:R:3 energy=0.0971866203203603 pbc="F F F"
He       0.00000000       0.00000000       0.00000000       0.00000000       0.00000000      -0.50048488
He       0.00000000       0.00000000       1.82606061       0.00000000       0.00000000       0.50048488
2
Properties=species:S:1:pos:R:3:forces:R:3 energy=0.07120128686255817 pbc="F F F"
He       0.00000000       0.00000000       0.00000000       0.00000000       0.00000000      -0.38793775
He       0.00000000       0.00000000       1.88484848       0.00000000       0.00000000       0.38793775
2
Properties=species:S:1:pos:R:3:forces:R:3 energy=0.05110854010856544 pbc="F F F"
He       0.00000000       0.00000000       0.00000000       0.00000000       0.00000000      -0.29919130
He       0.00000000       0.00000000       1.94363636       0.00000000       0.00000000       0.29919130
2
Properties=species:S:1:pos:R:3:forces:R:3 energy=0.03565022534610908 pbc="F F F"
He       0.00000000       0.00000000       0.00000000       0.00000000       0.00000000      -0.22952400
He       0.00000000       0.00000000       2.00242424       0.00000000       0.00000000       0.22952400
2
Properties=species:S:1:pos:R:3:forces:R:3 energy=0.023823979565059 pbc="F F F"
He       0.00000000       0.00000000       0.00000000       0.00000000       0.00000000      -0.17506637
He       0.00000000       0.00000000       2.06121212       0.00000000       0.00000000       0.17506637
2
Properties=species:S:1:pos:R:3:forces:R:3 energy=0.01483140699019476 pbc="F F F"
He       0.00000000       0.00000000       0.00000000       0.00000000       0.00000000      -0.13266234
He       0.00000000       0.00000000       2.12000000       0.00000000       0.00000000       0.13266234
2
Properties=species:S:1:pos:R:3:forces:R:3 energy=0.008040203882749643 pbc="F F F"
He       0.00000000       0.00000000       0.00000000       0.00000000       0.00000000      -0.09975413
He       0.00000000       0.00000000       2.17878788       0.00000000       0.00000000       0.09975413
2
Properties=species:S:1:pos:R:3:forces:R:3 energy=0.0029566816392455316 pbc="F F F"
He       0.00000000       0.00000000       0.00000000       0.00000000       0.00000000      -0.07429159
He       0.00000000       0.00000000       2.23757576       0.00000000       0.00000000       0.07429159
2
Properties=species:S:1:pos:R:3:forces:R:3 energy=-0.0008075150016646595 pbc="F F F"
He       0.00000000       0.00000000       0.00000000       0.00000000       0.00000000      -0.05462758
He       0.00000000       0.00000000       2.29636364       0.00000000       0.00000000       0.05462758
2
Properties=species:S:1:pos:R:3:forces:R:3 energy=-0.0035538661649660015 pbc="F F F"
He       0.00000000       0.00000000       0.00000000       0.00000000       0.00000000      -0.03945651
He       0.00000000       0.00000000       2.35515152       0.00000000       0.00000000       0.03945651
2
Properties=species:S:1:pos:R:3:forces:R:3 energy=-0.005514571428218895 pbc="F F F"
He       0.00000000       0.00000000       0.00000000       0.00000000       0.00000000      -0.02775390
He       0.00000000       0.00000000       2.41393939       0.00000000       0.00000000       0.02775390
2
Properties=species:S:1:pos:R:3:forces:R:3 energy=-0.006869386266360504 pbc="F F F"
He       0.00000000       0.00000000       0.00000000       0.00000000       0.00000000      -0.01872529
He       0.00000000       0.00000000       2.47272727       0.00000000       0.00000000       0.01872529
2
Properties=species:S:1:pos:R:3:forces:R:3 energy=-0.007756674720762077 pbc="F F F"
He       0.00000000       0.00000000       0.00000000       0.00000000       0.00000000      -0.01176530
He       0.00000000       0.00000000       2.53151515       0.00000000       0.00000000       0.01176530
2
Properties=species:S:1:pos:R:3:forces:R:3 energy=-0.008284406576893605 pbc="F F F"
He       0.00000000       0.00000000       0.00000000       0.00000000       0.00000000      -0.00642090
He       0.00000000       0.00000000       2.59030303       0.00000000       0.00000000       0.00642090
2
Properties=species:S:1:pos:R:3:forces:R:3 energy=-0.008536899606636582 pbc="F F F"
He       0.00000000       0.00000000       0.00000000       0.00000000       0.00000000      -0.00236022
He       0.00000000       0.00000000       2.64909091       0.00000000       0.00000000       0.00236022
2
Properties=species:S:1:pos:R:3:forces:R:3 energy=-0.008582085179041944 pbc="F F F"
He       0.00000000       0.00000000       0.00000000       0.00000000       0.00000000       0.00065803
He       0.00000000       0.00000000       2.70787879       0.00000000       0.00000000      -0.00065803
2
Properties=species:S:1:pos:R:3:forces:R:3 energy=-0.008476282748565378 pbc="F F F"
He       0.00000000       0.00000000       0.00000000       0.00000000       0.00000000       0.00281151
He       0.00000000       0.00000000       2.76666667       0.00000000       0.00000000      -0.00281151
2
Properties=species:S:1:pos:R:3:forces:R:3 energy=-0.008265866508809469 pbc="F F F"
He       0.00000000       0.00000000       0.00000000       0.00000000       0.00000000       0.00423755
He       0.00000000       0.00000000       2.82545455       0.00000000       0.00000000      -0.00423755
2
Properties=species:S:1:pos:R:3:forces:R:3 energy=-0.007990147997943136 pbc="F F F"
He       0.00000000       0.00000000       0.00000000       0.00000000       0.00000000       0.00505382
He       0.00000000       0.00000000       2.88424242       0.00000000       0.00000000      -0.00505382
2
Properties=species:S:1:pos:R:3:forces:R:3 energy=-0.007681425690532584 pbc="F F F"
He       0.00000000       0.00000000       0.00000000       0.00000000       0.00000000       0.00537222
He       0.00000000       0.00000000       2.94303030       0.00000000       0.00000000      -0.00537222
2
Properties=species:S:1:pos:R:3:forces:R:3 energy=-0.007365837873342127 pbc="F F F"
He       0.00000000       0.00000000       0.00000000       0.00000000       0.00000000       0.00530847
He       0.00000000       0.00000000       3.00181818       0.00000000       0.00000000      -0.00530847
2
Properties=species:S:1:pos:R:3:forces:R:3 energy=-0.007062425962684545 pbc="F F F"
He       0.00000000       0.00000000       0.00000000       0.00000000       0.00000000       0.00498231
He       0.00000000       0.00000000       3.06060606       0.00000000       0.00000000      -0.00498231
2
Properties=species:S:1:pos:R:3:forces:R:3 energy=-0.0067829154826862656 pbc="F F F"
He       0.00000000       0.00000000       0.00000000       0.00000000       0.00000000       0.00451252
He       0.00000000       0.00000000       3.11939394       0.00000000       0.00000000      -0.00451252
2
Properties=species:S:1:pos:R:3:forces:R:3 energy=-0.006532548017017627 pbc="F F F"
He       0.00000000       0.00000000       0.00000000       0.00000000       0.00000000       0.00400937
He       0.00000000       0.00000000       3.17818182       0.00000000       0.00000000      -0.00400937
2
Properties=species:S:1:pos:R:3:forces:R:3 energy=-0.006310309760652171 pbc="F F F"
He       0.00000000       0.00000000       0.00000000       0.00000000       0.00000000       0.00356348
He       0.00000000       0.00000000       3.23696970       0.00000000       0.00000000      -0.00356348
2
Properties=species:S:1:pos:R:3:forces:R:3 energy=-0.006111082944697524 pbc="F F F"
He       0.00000000       0.00000000       0.00000000       0.00000000       0.00000000       0.00324047
He       0.00000000       0.00000000       3.29575758       0.00000000       0.00000000      -0.00324047
2
Properties=species:S:1:pos:R:3:forces:R:3 energy=-0.00592628355924806 pbc="F F F"
He       0.00000000       0.00000000       0.00000000       0.00000000       0.00000000       0.00307563
He       0.00000000       0.00000000       3.35454545       0.00000000       0.00000000      -0.00307563
2
Properties=species:S:1:pos:R:3:forces:R:3 energy=-0.0057461765093122395 pbc="F F F"
He       0.00000000       0.00000000       0.00000000       0.00000000       0.00000000       0.00307671
He       0.00000000       0.00000000       3.41333333       0.00000000       0.00000000      -0.00307671
2
Properties=species:S:1:pos:R:3:forces:R:3 energy=-0.005561474422189674 pbc="F F F"
He       0.00000000       0.00000000       0.00000000       0.00000000       0.00000000       0.00322903
He       0.00000000       0.00000000       3.47212121       0.00000000       0.00000000      -0.00322903
2
Properties=species:S:1:pos:R:3:forces:R:3 energy=-0.005364222269800511 pbc="F F F"
He       0.00000000       0.00000000       0.00000000       0.00000000       0.00000000       0.00349908
He       0.00000000       0.00000000       3.53090909       0.00000000       0.00000000      -0.00349908
2
Properties=species:S:1:pos:R:3:forces:R:3 energy=-0.005148724321257045 pbc="F F F"
He       0.00000000       0.00000000       0.00000000       0.00000000       0.00000000       0.00383947
He       0.00000000       0.00000000       3.58969697       0.00000000       0.00000000      -0.00383947
2
Properties=species:S:1:pos:R:3:forces:R:3 energy=-0.004912561519032578 pbc="F F F"
He       0.00000000       0.00000000       0.00000000       0.00000000       0.00000000       0.00419077
He       0.00000000       0.00000000       3.64848485       0.00000000       0.00000000      -0.00419077
2
Properties=species:S:1:pos:R:3:forces:R:3 energy=-0.0046571274245433645 pbc="F F F"
He       0.00000000       0.00000000       0.00000000       0.00000000       0.00000000       0.00448363
He       0.00000000       0.00000000       3.70727273       0.00000000       0.00000000      -0.00448363
2
Properties=species:S:1:pos:R:3:forces:R:3 energy=-0.004387988473932282 pbc="F F F"
He       0.00000000       0.00000000       0.00000000       0.00000000       0.00000000       0.00464404
He       0.00000000       0.00000000       3.76606061       0.00000000       0.00000000      -0.00464404
2
Properties=species:S:1:pos:R:3:forces:R:3 energy=-0.004115006620915897 pbc="F F F"
He       0.00000000       0.00000000       0.00000000       0.00000000       0.00000000       0.00460509
He       0.00000000       0.00000000       3.82484848       0.00000000       0.00000000      -0.00460509
2
Properties=species:S:1:pos:R:3:forces:R:3 energy=-0.0038512989677548987 pbc="F F F"
He       0.00000000       0.00000000       0.00000000       0.00000000       0.00000000       0.00432437
He       0.00000000       0.00000000       3.88363636       0.00000000       0.00000000      -0.00432437
2
Properties=species:S:1:pos:R:3:forces:R:3 energy=-0.00361127405957533 pbc="F F F"
He       0.00000000       0.00000000       0.00000000       0.00000000       0.00000000       0.00380535
He       0.00000000       0.00000000       3.94242424       0.00000000       0.00000000      -0.00380535
2
Properties=species:S:1:pos:R:3:forces:R:3 energy=-0.0034074070542738804 pbc="F F F"
He       0.00000000       0.00000000       0.00000000       0.00000000       0.00000000       0.00310913
He       0.00000000       0.00000000       4.00121212       0.00000000       0.00000000      -0.00310913
2
Properties=species:S:1:pos:R:3:forces:R:3 energy=-0.0032469859797381396 pbc="F F F"
He       0.00000000       0.00000000       0.00000000       0.00000000       0.00000000       0.00234969
He       0.00000000       0.00000000       4.06000000       0.00000000       0.00000000      -0.00234969
2
Properties=species:S:1:pos:R:3:forces:R:3 energy=-0.0031296890635970163 pbc="F F F"
He       0.00000000       0.00000000       0.00000000       0.00000000       0.00000000       0.00166335
He       0.00000000       0.00000000       4.11878788       0.00000000       0.00000000      -0.00166335
2
Properties=species:S:1:pos:R:3:forces:R:3 energy=-0.003047654596100773 pbc="F F F"
He       0.00000000       0.00000000       0.00000000       0.00000000       0.00000000       0.00116625
He       0.00000000       0.00000000       4.17757576       0.00000000       0.00000000      -0.00116625
2
Properties=species:S:1:pos:R:3:forces:R:3 energy=-0.002987561370916515 pbc="F F F"
He       0.00000000       0.00000000       0.00000000       0.00000000       0.00000000       0.00092239
He       0.00000000       0.00000000       4.23636364       0.00000000       0.00000000      -0.00092239
2
Properties=species:S:1:pos:R:3:forces:R:3 energy=-0.0029341046655856776 pbc="F F F"
He       0.00000000       0.00000000       0.00000000       0.00000000       0.00000000       0.00093802
He       0.00000000       0.00000000       4.29515152       0.00000000       0.00000000      -0.00093802
2
Properties=species:S:1:pos:R:3:forces:R:3 energy=-0.0028728483843481808 pbc="F F F"
He       0.00000000       0.00000000       0.00000000       0.00000000       0.00000000       0.00117922
He       0.00000000       0.00000000       4.35393939       0.00000000       0.00000000      -0.00117922
2
Properties=species:S:1:pos:R:3:forces:R:3 energy=-0.0027921060776947377 pbc="F F F"
He       0.00000000       0.00000000       0.00000000       0.00000000       0.00000000       0.00159022
He       0.00000000       0.00000000       4.41272727       0.00000000       0.00000000      -0.00159022
2
Properties=species:S:1:pos:R:3:forces:R:3 energy=-0.002683901326118171 pbc="F F F"
He       0.00000000       0.00000000       0.00000000       0.00000000       0.00000000       0.00210073
He       0.00000000       0.00000000       4.47151515       0.00000000       0.00000000      -0.00210073
2
Properties=species:S:1:pos:R:3:forces:R:3 energy=-0.0025448151254440993 pbc="F F F"
He       0.00000000       0.00000000       0.00000000       0.00000000       0.00000000       0.00262677
He       0.00000000       0.00000000       4.53030303       0.00000000       0.00000000      -0.00262677
2
Properties=species:S:1:pos:R:3:forces:R:3 energy=-0.0023765807443768623 pbc="F F F"
He       0.00000000       0.00000000       0.00000000       0.00000000       0.00000000       0.00307689
He       0.00000000       0.00000000       4.58909091       0.00000000       0.00000000      -0.00307689
2
Properties=species:S:1:pos:R:3:forces:R:3 energy=-0.002186116252730951 pbc="F F F"
He       0.00000000       0.00000000       0.00000000       0.00000000       0.00000000       0.00337150
He       0.00000000       0.00000000       4.64787879       0.00000000       0.00000000      -0.00337150
2
Properties=species:S:1:pos:R:3:forces:R:3 energy=-0.0019841074701673475 pbc="F F F"
He       0.00000000       0.00000000       0.00000000       0.00000000       0.00000000       0.00346642
He       0.00000000       0.00000000       4.70666667       0.00000000       0.00000000      -0.00346642
2
Properties=species:S:1:pos:R:3:forces:R:3 energy=-0.0017824058694815063 pbc="F F F"
He       0.00000000       0.00000000       0.00000000       0.00000000       0.00000000       0.00336600
He       0.00000000       0.00000000       4.76545455       0.00000000       0.00000000      -0.00336600
2
Properties=species:S:1:pos:R:3:forces:R:3 energy=-0.0015912994549791841 pbc="F F F"
He       0.00000000       0.00000000       0.00000000       0.00000000       0.00000000       0.00311509
He       0.00000000       0.00000000       4.82424242       0.00000000       0.00000000      -0.00311509
2
Properties=species:S:1:pos:R:3:forces:R:3 energy=-0.0014179671932597925 pbc="F F F"
He       0.00000000       0.00000000       0.00000000       0.00000000       0.00000000       0.00277161
He       0.00000000       0.00000000       4.88303030       0.00000000       0.00000000      -0.00277161
2
Properties=species:S:1:pos:R:3:forces:R:3 energy=-0.0012664728138934184 pbc="F F F"
He       0.00000000       0.00000000       0.00000000       0.00000000       0.00000000       0.00237453
He       0.00000000       0.00000000       4.94181818       0.00000000       0.00000000      -0.00237453
2
Properties=species:S:1:pos:R:3:forces:R:3 energy=-0.0011396319081474688 pbc="F F F"
He       0.00000000       0.00000000       0.00000000       0.00000000       0.00000000       0.00193153
He       0.00000000       0.00000000       5.00060606       0.00000000       0.00000000      -0.00193153
2
Properties=species:S:1:pos:R:3:forces:R:3 energy=-0.0010404181147055935 pbc="F F F"
He       0.00000000       0.00000000       0.00000000       0.00000000       0.00000000       0.00143544
He       0.00000000       0.00000000       5.05939394       0.00000000       0.00000000      -0.00143544
2
Properties=species:S:1:pos:R:3:forces:R:3 energy=-0.0009715088155456695 pbc="F F F"
He       0.00000000       0.00000000       0.00000000       0.00000000       0.00000000       0.00090936
He       0.00000000       0.00000000       5.11818182       0.00000000       0.00000000      -0.00090936
2
Properties=species:S:1:pos:R:3:forces:R:3 energy=-0.0009321678215660035 pbc="F F F"
He       0.00000000       0.00000000       0.00000000       0.00000000       0.00000000       0.00045566
He       0.00000000       0.00000000       5.17696970       0.00000000       0.00000000      -0.00045566
2
Properties=species:S:1:pos:R:3:forces:R:3 energy=-0.0009125503395178442 pbc="F F F"
He       0.00000000       0.00000000       0.00000000       0.00000000       0.00000000       0.00027921
He       0.00000000       0.00000000       5.23575758       0.00000000       0.00000000      -0.00027921
2
Properties=species:S:1:pos:R:3:forces:R:3 energy=-0.0008888722745879468 pbc="F F F"
He       0.00000000       0.00000000       0.00000000       0.00000000       0.00000000       0.00063158
He       0.00000000       0.00000000       5.29454545       0.00000000       0.00000000      -0.00063158
2
Properties=species:S:1:pos:R:3:forces:R:3 energy=-0.0008262978120793385 pbc="F F F"
He       0.00000000       0.00000000       0.00000000       0.00000000       0.00000000       0.00157286
He       0.00000000       0.00000000       5.35333333       0.00000000       0.00000000      -0.00157286
2
Properties=species:S:1:pos:R:3:forces:R:3 energy=-0.000703430453231469 pbc="F F F"
He       0.00000000       0.00000000       0.00000000       0.00000000       0.00000000       0.00251331
He       0.00000000       0.00000000       5.41212121       0.00000000       0.00000000      -0.00251331
2
Properties=species:S:1:pos:R:3:forces:R:3 energy=-0.0005526996423345598 pbc="F F F"
He       0.00000000       0.00000000       0.00000000       0.00000000       0.00000000       0.00238795
He       0.00000000       0.00000000       5.47090909       0.00000000       0.00000000      -0.00238795
2
Properties=species:S:1:pos:R:3:forces:R:3 energy=-0.00044006947152386484 pbc="F F F"
He       0.00000000       0.00000000       0.00000000       0.00000000       0.00000000       0.00142067
He       0.00000000       0.00000000       5.52969697       0.00000000       0.00000000      -0.00142067
2
Properties=species:S:1:pos:R:3:forces:R:3 energy=-0.00037840951393799943 pbc="F F F"
He       0.00000000       0.00000000       0.00000000       0.00000000       0.00000000       0.00075193
He       0.00000000       0.00000000       5.58848485       0.00000000       0.00000000      -0.00075193
2
Properties=species:S:1:pos:R:3:forces:R:3 energy=-0.0003504969359854001 pbc="F F F"
He       0.00000000       0.00000000       0.00000000       0.00000000       0.00000000       0.00012615
He       0.00000000       0.00000000       5.64727273       0.00000000       0.00000000      -0.00012615
2
Properties=species:S:1:pos:R:3:forces:R:3 energy=-0.00037962630174965753 pbc="F F F"
He       0.00000000       0.00000000       0.00000000       0.00000000       0.00000000      -0.00127242
He       0.00000000       0.00000000       5.70606061       0.00000000       0.00000000       0.00127242
2
Properties=species:S:1:pos:R:3:forces:R:3 energy=-0.0005078579670803557 pbc="F F F"
He       0.00000000       0.00000000       0.00000000       0.00000000       0.00000000      -0.00298117
He       0.00000000       0.00000000       5.76484848       0.00000000       0.00000000       0.00298117
2
Properties=species:S:1:pos:R:3:forces:R:3 energy=-0.0006995787861951974 pbc="F F F"
He       0.00000000       0.00000000       0.00000000       0.00000000       0.00000000      -0.00321008
He       0.00000000       0.00000000       5.82363636       0.00000000       0.00000000       0.00321008
2
Properties=species:S:1:pos:R:3:forces:R:3 energy=-0.0008535713742695461 pbc="F F F"
He       0.00000000       0.00000000       0.00000000       0.00000000       0.00000000      -0.00191118
He       0.00000000       0.00000000       5.88242424       0.00000000       0.00000000       0.00191118
2
Properties=species:S:1:pos:R:3:forces:R:3 energy=-0.0009229891986292185 pbc="F F F"
He       0.00000000       0.00000000       0.00000000       0.00000000       0.00000000      -0.00052523
He       0.00000000       0.00000000       5.94121212       0.00000000       0.00000000       0.00052523
2
Properties=species:S:1:pos:R:3:forces:R:3 energy=-0.000932467079038614 pbc="F F F"
He       0.00000000       0.00000000       0.00000000       0.00000000       0.00000000       0.00002058
He       0.00000000       0.00000000       6.00000000       0.00000000       0.00000000      -0.00002058
