2
Properties=species:S:1:pos:R:3:forces:R:3 energy=15706.271228770509 pbc="F F F"
Ir       0.00000000       0.00000000       0.00000000       0.00000000       0.00000000 -275194.93750000
Ir       0.00000000       0.00000000       0.18000000       0.00000000       0.00000000  275194.93750000
2
Properties=species:S:1:pos:R:3:forces:R:3 energy=6110.756580333009 pbc="F F F"
Ir       0.00000000       0.00000000       0.00000000       0.00000000       0.00000000  -90498.56250000
Ir       0.00000000       0.00000000       0.23878788       0.00000000       0.00000000   90498.56250000
2
Properties=species:S:1:pos:R:3:forces:R:3 energy=2710.9323615861763 pbc="F F F"
Ir       0.00000000       0.00000000       0.00000000       0.00000000       0.00000000  -35005.42187500
Ir       0.00000000       0.00000000       0.29757576       0.00000000       0.00000000   35005.42187500
2
Properties=species:S:1:pos:R:3:forces:R:3 energy=1333.2864875659068 pbc="F F F"
Ir       0.00000000       0.00000000       0.00000000       0.00000000       0.00000000  -14986.11621094
Ir       0.00000000       0.00000000       0.35636364       0.00000000       0.00000000   14986.11621094
2
Properties=species:S:1:pos:R:3:forces:R:3 energy=723.3531379628673 pbc="F F F"
Ir       0.00000000       0.00000000       0.00000000       0.00000000       0.00000000   -6910.49023438
Ir       0.00000000       0.00000000       0.41515152       0.00000000       0.00000000    6910.49023438
2
Properties=species:S:1:pos:R:3:forces:R:3 energy=434.0650215204605 pbc="F F F"
Ir       0.00000000       0.00000000       0.00000000       0.00000000       0.00000000   -3393.77392578
Ir       0.00000000       0.00000000       0.47393939       0.00000000       0.00000000    3393.77392578
2
Properties=species:S:1:pos:R:3:forces:R:3 energy=288.1509285250571 pbc="F F F"
Ir       0.00000000       0.00000000       0.00000000       0.00000000       0.00000000   -1770.42016602
Ir       0.00000000       0.00000000       0.53272727       0.00000000       0.00000000    1770.42016602
2
Properties=species:S:1:pos:R:3:forces:R:3 energy=209.80650717952005 pbc="F F F"
Ir       0.00000000       0.00000000       0.00000000       0.00000000       0.00000000    -986.89544678
Ir       0.00000000       0.00000000       0.59151515       0.00000000       0.00000000     986.89544678
2
Properties=species:S:1:pos:R:3:forces:R:3 energy=164.50334562178276 pbc="F F F"
Ir       0.00000000       0.00000000       0.00000000       0.00000000       0.00000000    -599.35357666
Ir       0.00000000       0.00000000       0.65030303       0.00000000       0.00000000     599.35357666
2
Properties=species:S:1:pos:R:3:forces:R:3 energy=135.50926614281278 pbc="F F F"
Ir       0.00000000       0.00000000       0.00000000       0.00000000       0.00000000    -410.20220947
Ir       0.00000000       0.00000000       0.70909091       0.00000000       0.00000000     410.20220947
2
Properties=species:S:1:pos:R:3:forces:R:3 energy=114.28736536759811 pbc="F F F"
Ir       0.00000000       0.00000000       0.00000000       0.00000000       0.00000000    -323.77981567
Ir       0.00000000       0.00000000       0.76787879       0.00000000       0.00000000     323.77981567
2
Properties=species:S:1:pos:R:3:forces:R:3 energy=96.49311511690352 pbc="F F F"
Ir       0.00000000       0.00000000       0.00000000       0.00000000       0.00000000    -285.81594849
Ir       0.00000000       0.00000000       0.82666667       0.00000000       0.00000000     285.81594849
2
Properties=species:S:1:pos:R:3:forces:R:3 energy=80.49556449467285 pbc="F F F"
Ir       0.00000000       0.00000000       0.00000000       0.00000000       0.00000000    -259.52273560
Ir       0.00000000       0.00000000       0.88545455       0.00000000       0.00000000     259.52273560
2
Properties=species:S:1:pos:R:3:forces:R:3 energy=65.74808268271278 pbc="F F F"
Ir       0.00000000       0.00000000       0.00000000       0.00000000       0.00000000    -243.46730042
Ir       0.00000000       0.00000000       0.94424242       0.00000000       0.00000000     243.46730042
2
Properties=species:S:1:pos:R:3:forces:R:3 energy=51.96713852056886 pbc="F F F"
Ir       0.00000000       0.00000000       0.00000000       0.00000000       0.00000000    -223.11602783
Ir       0.00000000       0.00000000       1.00303030       0.00000000       0.00000000     223.11602783
2
Properties=species:S:1:pos:R:3:forces:R:3 energy=39.7586128057344 pbc="F F F"
Ir       0.00000000       0.00000000       0.00000000       0.00000000       0.00000000    -191.25550842
Ir       0.00000000       0.00000000       1.06181818       0.00000000       0.00000000     191.25550842
2
Properties=species:S:1:pos:R:3:forces:R:3 energy=29.444433619522197 pbc="F F F"
Ir       0.00000000       0.00000000       0.00000000       0.00000000       0.00000000    -160.12413025
Ir       0.00000000       0.00000000       1.12060606       0.00000000       0.00000000     160.12413025
2
Properties=species:S:1:pos:R:3:forces:R:3 energy=21.03471761827624 pbc="F F F"
Ir       0.00000000       0.00000000       0.00000000       0.00000000       0.00000000    -123.96033478
Ir       0.00000000       0.00000000       1.17939394       0.00000000       0.00000000     123.96033478
2
Properties=species:S:1:pos:R:3:forces:R:3 energy=14.968549897409417 pbc="F F F"
Ir       0.00000000       0.00000000       0.00000000       0.00000000       0.00000000     -84.20163727
Ir       0.00000000       0.00000000       1.23818182       0.00000000       0.00000000      84.20163727
2
Properties=species:S:1:pos:R:3:forces:R:3 energy=10.779759290475777 pbc="F F F"
Ir       0.00000000       0.00000000       0.00000000       0.00000000       0.00000000     -60.75916672
Ir       0.00000000       0.00000000       1.29696970       0.00000000       0.00000000      60.75916672
2
Properties=species:S:1:pos:R:3:forces:R:3 energy=7.669756217767306 pbc="F F F"
Ir       0.00000000       0.00000000       0.00000000       0.00000000       0.00000000     -45.78071594
Ir       0.00000000       0.00000000       1.35575758       0.00000000       0.00000000      45.78071594
2
Properties=species:S:1:pos:R:3:forces:R:3 energy=5.302613809085661 pbc="F F F"
Ir       0.00000000       0.00000000       0.00000000       0.00000000       0.00000000     -35.71230316
Ir       0.00000000       0.00000000       1.41454545       0.00000000       0.00000000      35.71230316
2
Properties=species:S:1:pos:R:3:forces:R:3 energy=3.362278110727636 pbc="F F F"
Ir       0.00000000       0.00000000       0.00000000       0.00000000       0.00000000     -31.00522614
Ir       0.00000000       0.00000000       1.47333333       0.00000000       0.00000000      31.00522614
2
Properties=species:S:1:pos:R:3:forces:R:3 energy=1.6120263602599243 pbc="F F F"
Ir       0.00000000       0.00000000       0.00000000       0.00000000       0.00000000     -28.64738846
Ir       0.00000000       0.00000000       1.53212121       0.00000000       0.00000000      28.64738846
2
Properties=species:S:1:pos:R:3:forces:R:3 energy=-0.001841397555642485 pbc="F F F"
Ir       0.00000000       0.00000000       0.00000000       0.00000000       0.00000000     -26.16074562
Ir       0.00000000       0.00000000       1.59090909       0.00000000       0.00000000      26.16074562
2
Properties=species:S:1:pos:R:3:forces:R:3 energy=-1.4538905609945567 pbc="F F F"
Ir       0.00000000       0.00000000       0.00000000       0.00000000       0.00000000     -23.18820572
Ir       0.00000000       0.00000000       1.64969697       0.00000000       0.00000000      23.18820572
2
Properties=species:S:1:pos:R:3:forces:R:3 energy=-2.7273612204383473 pbc="F F F"
Ir       0.00000000       0.00000000       0.00000000       0.00000000       0.00000000     -20.16816330
Ir       0.00000000       0.00000000       1.70848485       0.00000000       0.00000000      20.16816330
2
Properties=species:S:1:pos:R:3:forces:R:3 energy=-3.8317233523454615 pbc="F F F"
Ir       0.00000000       0.00000000       0.00000000       0.00000000       0.00000000     -17.46916962
Ir       0.00000000       0.00000000       1.76727273       0.00000000       0.00000000      17.46916962
2
Properties=species:S:1:pos:R:3:forces:R:3 energy=-4.788187979647268 pbc="F F F"
Ir       0.00000000       0.00000000       0.00000000       0.00000000       0.00000000     -15.11205578
Ir       0.00000000       0.00000000       1.82606061       0.00000000       0.00000000      15.11205578
2
Properties=species:S:1:pos:R:3:forces:R:3 energy=-5.6109320000834435 pbc="F F F"
Ir       0.00000000       0.00000000       0.00000000       0.00000000       0.00000000     -12.87915802
Ir       0.00000000       0.00000000       1.88484848       0.00000000       0.00000000      12.87915802
2
Properties=species:S:1:pos:R:3:forces:R:3 energy=-6.301177968450959 pbc="F F F"
Ir       0.00000000       0.00000000       0.00000000       0.00000000       0.00000000     -10.58699131
Ir       0.00000000       0.00000000       1.94363636       0.00000000       0.00000000      10.58699131
2
Properties=species:S:1:pos:R:3:forces:R:3 energy=-6.8539760516388775 pbc="F F F"
Ir       0.00000000       0.00000000       0.00000000       0.00000000       0.00000000      -8.20952606
Ir       0.00000000       0.00000000       2.00242424       0.00000000       0.00000000       8.20952606
2
Properties=species:S:1:pos:R:3:forces:R:3 energy=-7.266028709158878 pbc="F F F"
Ir       0.00000000       0.00000000       0.00000000       0.00000000       0.00000000      -5.81239891
Ir       0.00000000       0.00000000       2.06121212       0.00000000       0.00000000       5.81239891
2
Properties=species:S:1:pos:R:3:forces:R:3 energy=-7.538674907816011 pbc="F F F"
Ir       0.00000000       0.00000000       0.00000000       0.00000000       0.00000000      -3.48230839
Ir       0.00000000       0.00000000       2.12000000       0.00000000       0.00000000       3.48230839
2
Properties=species:S:1:pos:R:3:forces:R:3 energy=-7.678750007672886 pbc="F F F"
Ir       0.00000000       0.00000000       0.00000000       0.00000000       0.00000000      -1.32042336
Ir       0.00000000       0.00000000       2.17878788       0.00000000       0.00000000       1.32042336
2
Properties=species:S:1:pos:R:3:forces:R:3 energy=-7.699427526378148 pbc="F F F"
Ir       0.00000000       0.00000000       0.00000000       0.00000000       0.00000000       0.56142849
Ir       0.00000000       0.00000000       2.23757576       0.00000000       0.00000000      -0.56142849
2
Properties=species:S:1:pos:R:3:forces:R:3 energy=-7.620112458388339 pbc="F F F"
Ir       0.00000000       0.00000000       0.00000000       0.00000000       0.00000000       2.06881118
Ir       0.00000000       0.00000000       2.29636364       0.00000000       0.00000000      -2.06881118
2
Properties=species:S:1:pos:R:3:forces:R:3 energy=-7.4644532397102275 pbc="F F F"
Ir       0.00000000       0.00000000       0.00000000       0.00000000       0.00000000       3.15647531
Ir       0.00000000       0.00000000       2.35515152       0.00000000       0.00000000      -3.15647531
2
Properties=species:S:1:pos:R:3:forces:R:3 energy=-7.256893494233172 pbc="F F F"
Ir       0.00000000       0.00000000       0.00000000       0.00000000       0.00000000       3.84242702
Ir       0.00000000       0.00000000       2.41393939       0.00000000       0.00000000      -3.84242702
2
Properties=species:S:1:pos:R:3:forces:R:3 energy=-7.019224068173455 pbc="F F F"
Ir       0.00000000       0.00000000       0.00000000       0.00000000       0.00000000       4.19494295
Ir       0.00000000       0.00000000       2.47272727       0.00000000       0.00000000      -4.19494295
2
Properties=species:S:1:pos:R:3:forces:R:3 energy=-6.7684546802171095 pbc="F F F"
Ir       0.00000000       0.00000000       0.00000000       0.00000000       0.00000000       4.30323458
Ir       0.00000000       0.00000000       2.53151515       0.00000000       0.00000000      -4.30323458
2
Properties=species:S:1:pos:R:3:forces:R:3 energy=-6.5162906358282005 pbc="F F F"
Ir       0.00000000       0.00000000       0.00000000       0.00000000       0.00000000       4.25714684
Ir       0.00000000       0.00000000       2.59030303       0.00000000       0.00000000      -4.25714684
2
Properties=species:S:1:pos:R:3:forces:R:3 energy=-6.269259113672481 pbc="F F F"
Ir       0.00000000       0.00000000       0.00000000       0.00000000       0.00000000       4.14214373
Ir       0.00000000       0.00000000       2.64909091       0.00000000       0.00000000      -4.14214373
2
Properties=species:S:1:pos:R:3:forces:R:3 energy=-6.029248325507516 pbc="F F F"
Ir       0.00000000       0.00000000       0.00000000       0.00000000       0.00000000       4.02684927
Ir       0.00000000       0.00000000       2.70787879       0.00000000       0.00000000      -4.02684927
2
Properties=species:S:1:pos:R:3:forces:R:3 energy=-5.7952612941928106 pbc="F F F"
Ir       0.00000000       0.00000000       0.00000000       0.00000000       0.00000000       3.93733954
Ir       0.00000000       0.00000000       2.76666667       0.00000000       0.00000000      -3.93733954
2
Properties=species:S:1:pos:R:3:forces:R:3 energy=-5.5661231681488985 pbc="F F F"
Ir       0.00000000       0.00000000       0.00000000       0.00000000       0.00000000       3.85700750
Ir       0.00000000       0.00000000       2.82545455       0.00000000       0.00000000      -3.85700750
2
Properties=species:S:1:pos:R:3:forces:R:3 energy=-5.34226353598464 pbc="F F F"
Ir       0.00000000       0.00000000       0.00000000       0.00000000       0.00000000       3.75163841
Ir       0.00000000       0.00000000       2.88424242       0.00000000       0.00000000      -3.75163841
2
Properties=species:S:1:pos:R:3:forces:R:3 energy=-5.126171741205871 pbc="F F F"
Ir       0.00000000       0.00000000       0.00000000       0.00000000       0.00000000       3.58806968
Ir       0.00000000       0.00000000       2.94303030       0.00000000       0.00000000      -3.58806968
2
Properties=species:S:1:pos:R:3:forces:R:3 energy=-4.9218933921358 pbc="F F F"
Ir       0.00000000       0.00000000       0.00000000       0.00000000       0.00000000       3.34887075
Ir       0.00000000       0.00000000       3.00181818       0.00000000       0.00000000      -3.34887075
2
Properties=species:S:1:pos:R:3:forces:R:3 energy=-4.733768963427504 pbc="F F F"
Ir       0.00000000       0.00000000       0.00000000       0.00000000       0.00000000       3.04201365
Ir       0.00000000       0.00000000       3.06060606       0.00000000       0.00000000      -3.04201365
2
Properties=species:S:1:pos:R:3:forces:R:3 energy=-4.564935241069346 pbc="F F F"
Ir       0.00000000       0.00000000       0.00000000       0.00000000       0.00000000       2.69940019
Ir       0.00000000       0.00000000       3.11939394       0.00000000       0.00000000      -2.69940019
2
Properties=species:S:1:pos:R:3:forces:R:3 energy=-4.416220622270119 pbc="F F F"
Ir       0.00000000       0.00000000       0.00000000       0.00000000       0.00000000       2.36494160
Ir       0.00000000       0.00000000       3.17818182       0.00000000       0.00000000      -2.36494160
2
Properties=species:S:1:pos:R:3:forces:R:3 energy=-4.285945696221947 pbc="F F F"
Ir       0.00000000       0.00000000       0.00000000       0.00000000       0.00000000       2.07721686
Ir       0.00000000       0.00000000       3.23696970       0.00000000       0.00000000      -2.07721686
2
Properties=species:S:1:pos:R:3:forces:R:3 energy=-4.170689964588921 pbc="F F F"
Ir       0.00000000       0.00000000       0.00000000       0.00000000       0.00000000       1.85508037
Ir       0.00000000       0.00000000       3.29575758       0.00000000       0.00000000      -1.85508037
2
Properties=species:S:1:pos:R:3:forces:R:3 energy=-4.0666190533887425 pbc="F F F"
Ir       0.00000000       0.00000000       0.00000000       0.00000000       0.00000000       1.69439673
Ir       0.00000000       0.00000000       3.35454545       0.00000000       0.00000000      -1.69439673
2
Properties=species:S:1:pos:R:3:forces:R:3 energy=-3.970638538538337 pbc="F F F"
Ir       0.00000000       0.00000000       0.00000000       0.00000000       0.00000000       1.57602990
Ir       0.00000000       0.00000000       3.41333333       0.00000000       0.00000000      -1.57602990
2
Properties=species:S:1:pos:R:3:forces:R:3 energy=-3.880935409454185 pbc="F F F"
Ir       0.00000000       0.00000000       0.00000000       0.00000000       0.00000000       1.47723997
Ir       0.00000000       0.00000000       3.47212121       0.00000000       0.00000000      -1.47723997
2
Properties=species:S:1:pos:R:3:forces:R:3 energy=-3.796930022540939 pbc="F F F"
Ir       0.00000000       0.00000000       0.00000000       0.00000000       0.00000000       1.37984884
Ir       0.00000000       0.00000000       3.53090909       0.00000000       0.00000000      -1.37984884
2
Properties=species:S:1:pos:R:3:forces:R:3 energy=-3.71886811631743 pbc="F F F"
Ir       0.00000000       0.00000000       0.00000000       0.00000000       0.00000000       1.27415097
Ir       0.00000000       0.00000000       3.58969697       0.00000000       0.00000000      -1.27415097
2
Properties=species:S:1:pos:R:3:forces:R:3 energy=-3.6472955712871635 pbc="F F F"
Ir       0.00000000       0.00000000       0.00000000       0.00000000       0.00000000       1.15975928
Ir       0.00000000       0.00000000       3.64848485       0.00000000       0.00000000      -1.15975928
2
Properties=species:S:1:pos:R:3:forces:R:3 energy=-3.582544008014669 pbc="F F F"
Ir       0.00000000       0.00000000       0.00000000       0.00000000       0.00000000       1.04370320
Ir       0.00000000       0.00000000       3.70727273       0.00000000       0.00000000      -1.04370320
2
Properties=species:S:1:pos:R:3:forces:R:3 energy=-3.524409124784329 pbc="F F F"
Ir       0.00000000       0.00000000       0.00000000       0.00000000       0.00000000       0.93636477
Ir       0.00000000       0.00000000       3.76606061       0.00000000       0.00000000      -0.93636477
2
Properties=species:S:1:pos:R:3:forces:R:3 energy=-3.472095047868964 pbc="F F F"
Ir       0.00000000       0.00000000       0.00000000       0.00000000       0.00000000       0.84697622
Ir       0.00000000       0.00000000       3.82484848       0.00000000       0.00000000      -0.84697622
2
Properties=species:S:1:pos:R:3:forces:R:3 energy=-3.4243733368832387 pbc="F F F"
Ir       0.00000000       0.00000000       0.00000000       0.00000000       0.00000000       0.78047156
Ir       0.00000000       0.00000000       3.88363636       0.00000000       0.00000000      -0.78047156
2
Properties=species:S:1:pos:R:3:forces:R:3 energy=-3.379883780331472 pbc="F F F"
Ir       0.00000000       0.00000000       0.00000000       0.00000000       0.00000000       0.73660511
Ir       0.00000000       0.00000000       3.94242424       0.00000000       0.00000000      -0.73660511
2
Properties=species:S:1:pos:R:3:forces:R:3 energy=-3.3374117936245487 pbc="F F F"
Ir       0.00000000       0.00000000       0.00000000       0.00000000       0.00000000       0.71080595
Ir       0.00000000       0.00000000       4.00121212       0.00000000       0.00000000      -0.71080595
2
Properties=species:S:1:pos:R:3:forces:R:3 energy=-3.296095996131121 pbc="F F F"
Ir       0.00000000       0.00000000       0.00000000       0.00000000       0.00000000       0.69594353
Ir       0.00000000       0.00000000       4.06000000       0.00000000       0.00000000      -0.69594353
2
Properties=species:S:1:pos:R:3:forces:R:3 energy=-3.2555259691306824 pbc="F F F"
Ir       0.00000000       0.00000000       0.00000000       0.00000000       0.00000000       0.68416464
Ir       0.00000000       0.00000000       4.11878788       0.00000000       0.00000000      -0.68416464
2
Properties=species:S:1:pos:R:3:forces:R:3 energy=-3.2157344798673013 pbc="F F F"
Ir       0.00000000       0.00000000       0.00000000       0.00000000       0.00000000       0.66835815
Ir       0.00000000       0.00000000       4.17757576       0.00000000       0.00000000      -0.66835815
2
Properties=species:S:1:pos:R:3:forces:R:3 energy=-3.1771286491042656 pbc="F F F"
Ir       0.00000000       0.00000000       0.00000000       0.00000000       0.00000000       0.64311033
Ir       0.00000000       0.00000000       4.23636364       0.00000000       0.00000000      -0.64311033
2
Properties=species:S:1:pos:R:3:forces:R:3 energy=-3.1403692796448346 pbc="F F F"
Ir       0.00000000       0.00000000       0.00000000       0.00000000       0.00000000       0.60519063
Ir       0.00000000       0.00000000       4.29515152       0.00000000       0.00000000      -0.60519063
2
Properties=species:S:1:pos:R:3:forces:R:3 energy=-3.1062406766202293 pbc="F F F"
Ir       0.00000000       0.00000000       0.00000000       0.00000000       0.00000000       0.55372012
Ir       0.00000000       0.00000000       4.35393939       0.00000000       0.00000000      -0.55372012
2
Properties=species:S:1:pos:R:3:forces:R:3 energy=-3.0755061698304353 pbc="F F F"
Ir       0.00000000       0.00000000       0.00000000       0.00000000       0.00000000       0.49006414
Ir       0.00000000       0.00000000       4.41272727       0.00000000       0.00000000      -0.49006414
2
Properties=species:S:1:pos:R:3:forces:R:3 energy=-3.048794731038683 pbc="F F F"
Ir       0.00000000       0.00000000       0.00000000       0.00000000       0.00000000       0.41756141
Ir       0.00000000       0.00000000       4.47151515       0.00000000       0.00000000      -0.41756141
2
Properties=species:S:1:pos:R:3:forces:R:3 energy=-3.026490749392087 pbc="F F F"
Ir       0.00000000       0.00000000       0.00000000       0.00000000       0.00000000       0.34099421
Ir       0.00000000       0.00000000       4.53030303       0.00000000       0.00000000      -0.34099421
2
Properties=species:S:1:pos:R:3:forces:R:3 energy=-3.0086739499397153 pbc="F F F"
Ir       0.00000000       0.00000000       0.00000000       0.00000000       0.00000000       0.26587635
Ir       0.00000000       0.00000000       4.58909091       0.00000000       0.00000000      -0.26587635
2
Properties=species:S:1:pos:R:3:forces:R:3 energy=-2.9950954662434777 pbc="F F F"
Ir       0.00000000       0.00000000       0.00000000       0.00000000       0.00000000       0.19763611
Ir       0.00000000       0.00000000       4.64787879       0.00000000       0.00000000      -0.19763611
2
Properties=species:S:1:pos:R:3:forces:R:3 energy=-2.985211248321521 pbc="F F F"
Ir       0.00000000       0.00000000       0.00000000       0.00000000       0.00000000       0.14084385
Ir       0.00000000       0.00000000       4.70666667       0.00000000       0.00000000      -0.14084385
2
Properties=species:S:1:pos:R:3:forces:R:3 energy=-2.9782476309253014 pbc="F F F"
Ir       0.00000000       0.00000000       0.00000000       0.00000000       0.00000000       0.09867809
Ir       0.00000000       0.00000000       4.76545455       0.00000000       0.00000000      -0.09867809
2
Properties=species:S:1:pos:R:3:forces:R:3 energy=-2.973292292227383 pbc="F F F"
Ir       0.00000000       0.00000000       0.00000000       0.00000000       0.00000000       0.07261036
Ir       0.00000000       0.00000000       4.82424242       0.00000000       0.00000000      -0.07261036
2
Properties=species:S:1:pos:R:3:forces:R:3 energy=-2.969399593651712 pbc="F F F"
Ir       0.00000000       0.00000000       0.00000000       0.00000000       0.00000000       0.06235030
Ir       0.00000000       0.00000000       4.88303030       0.00000000       0.00000000      -0.06235030
2
Properties=species:S:1:pos:R:3:forces:R:3 energy=-2.9656903727201303 pbc="F F F"
Ir       0.00000000       0.00000000       0.00000000       0.00000000       0.00000000       0.06588054
Ir       0.00000000       0.00000000       4.94181818       0.00000000       0.00000000      -0.06588054
2
Properties=species:S:1:pos:R:3:forces:R:3 energy=-2.9614520756877756 pbc="F F F"
Ir       0.00000000       0.00000000       0.00000000       0.00000000       0.00000000       0.07964526
Ir       0.00000000       0.00000000       5.00060606       0.00000000       0.00000000      -0.07964526
2
Properties=species:S:1:pos:R:3:forces:R:3 energy=-2.9562179441895644 pbc="F F F"
Ir       0.00000000       0.00000000       0.00000000       0.00000000       0.00000000       0.09887943
Ir       0.00000000       0.00000000       5.05939394       0.00000000       0.00000000      -0.09887943
2
Properties=species:S:1:pos:R:3:forces:R:3 energy=-2.9498248685915387 pbc="F F F"
Ir       0.00000000       0.00000000       0.00000000       0.00000000       0.00000000       0.11820377
Ir       0.00000000       0.00000000       5.11818182       0.00000000       0.00000000      -0.11820377
2
Properties=species:S:1:pos:R:3:forces:R:3 energy=-2.942419863306366 pbc="F F F"
Ir       0.00000000       0.00000000       0.00000000       0.00000000       0.00000000       0.13249621
Ir       0.00000000       0.00000000       5.17696970       0.00000000       0.00000000      -0.13249621
2
Properties=species:S:1:pos:R:3:forces:R:3 energy=-2.934421042174099 pbc="F F F"
Ir       0.00000000       0.00000000       0.00000000       0.00000000       0.00000000       0.13799560
Ir       0.00000000       0.00000000       5.23575758       0.00000000       0.00000000      -0.13799560
2
Properties=species:S:1:pos:R:3:forces:R:3 energy=-2.9263844985316614 pbc="F F F"
Ir       0.00000000       0.00000000       0.00000000       0.00000000       0.00000000       0.13403356
Ir       0.00000000       0.00000000       5.29454545       0.00000000       0.00000000      -0.13403356
2
Properties=species:S:1:pos:R:3:forces:R:3 energy=-2.9187548393516365 pbc="F F F"
Ir       0.00000000       0.00000000       0.00000000       0.00000000       0.00000000       0.12552434
Ir       0.00000000       0.00000000       5.35333333       0.00000000       0.00000000      -0.12552434
2
Properties=species:S:1:pos:R:3:forces:R:3 energy=-2.911528512865996 pbc="F F F"
Ir       0.00000000       0.00000000       0.00000000       0.00000000       0.00000000       0.12170999
Ir       0.00000000       0.00000000       5.41212121       0.00000000       0.00000000      -0.12170999
2
Properties=species:S:1:pos:R:3:forces:R:3 energy=-2.9043246505623177 pbc="F F F"
Ir       0.00000000       0.00000000       0.00000000       0.00000000       0.00000000       0.12334716
Ir       0.00000000       0.00000000       5.47090909       0.00000000       0.00000000      -0.12334716
2
Properties=species:S:1:pos:R:3:forces:R:3 energy=-2.8971783713276524 pbc="F F F"
Ir       0.00000000       0.00000000       0.00000000       0.00000000       0.00000000       0.11761105
Ir       0.00000000       0.00000000       5.52969697       0.00000000       0.00000000      -0.11761105
2
Properties=species:S:1:pos:R:3:forces:R:3 energy=-2.8907093734782614 pbc="F F F"
Ir       0.00000000       0.00000000       0.00000000       0.00000000       0.00000000       0.10161370
Ir       0.00000000       0.00000000       5.58848485       0.00000000       0.00000000      -0.10161370
2
Properties=species:S:1:pos:R:3:forces:R:3 energy=-2.885200001792448 pbc="F F F"
Ir       0.00000000       0.00000000       0.00000000       0.00000000       0.00000000       0.08713693
Ir       0.00000000       0.00000000       5.64727273       0.00000000       0.00000000      -0.08713693
2
Properties=species:S:1:pos:R:3:forces:R:3 energy=-2.8802877239734768 pbc="F F F"
Ir       0.00000000       0.00000000       0.00000000       0.00000000       0.00000000       0.08120051
Ir       0.00000000       0.00000000       5.70606061       0.00000000       0.00000000      -0.08120051
2
Properties=species:S:1:pos:R:3:forces:R:3 energy=-2.8756015363614553 pbc="F F F"
Ir       0.00000000       0.00000000       0.00000000       0.00000000       0.00000000       0.07716502
Ir       0.00000000       0.00000000       5.76484848       0.00000000       0.00000000      -0.07716502
2
Properties=species:S:1:pos:R:3:forces:R:3 energy=-2.8714135706215336 pbc="F F F"
Ir       0.00000000       0.00000000       0.00000000       0.00000000       0.00000000       0.06324654
Ir       0.00000000       0.00000000       5.82363636       0.00000000       0.00000000      -0.06324654
2
Properties=species:S:1:pos:R:3:forces:R:3 energy=-2.8683761378500416 pbc="F F F"
Ir       0.00000000       0.00000000       0.00000000       0.00000000       0.00000000       0.03965134
Ir       0.00000000       0.00000000       5.88242424       0.00000000       0.00000000      -0.03965134
2
Properties=species:S:1:pos:R:3:forces:R:3 energy=-2.8667097350826913 pbc="F F F"
Ir       0.00000000       0.00000000       0.00000000       0.00000000       0.00000000       0.01828524
Ir       0.00000000       0.00000000       5.94121212       0.00000000       0.00000000      -0.01828524
2
Properties=species:S:1:pos:R:3:forces:R:3 energy=-2.865967480610822 pbc="F F F"
Ir       0.00000000       0.00000000       0.00000000       0.00000000       0.00000000       0.00964539
Ir       0.00000000       0.00000000       6.00000000       0.00000000       0.00000000      -0.00964539
