2
Properties=species:S:1:pos:R:3:forces:R:3 energy=2153.5082938659357 pbc="F F F"
K        0.00000000       0.00000000       0.00000000       0.00000000       0.00000000  -31979.88671875
K        0.00000000       0.00000000       0.18000000       0.00000000       0.00000000   31979.88671875
2
Properties=species:S:1:pos:R:3:forces:R:3 energy=974.4746634948418 pbc="F F F"
K        0.00000000       0.00000000       0.00000000       0.00000000       0.00000000  -11998.62597656
K        0.00000000       0.00000000       0.23878788       0.00000000       0.00000000   11998.62597656
2
Properties=species:S:1:pos:R:3:forces:R:3 energy=498.43709635616995 pbc="F F F"
K        0.00000000       0.00000000       0.00000000       0.00000000       0.00000000   -5277.59667969
K        0.00000000       0.00000000       0.29757576       0.00000000       0.00000000    5277.59667969
2
Properties=species:S:1:pos:R:3:forces:R:3 energy=278.4788138870507 pbc="F F F"
K        0.00000000       0.00000000       0.00000000       0.00000000       0.00000000   -2578.35205078
K        0.00000000       0.00000000       0.35636364       0.00000000       0.00000000    2578.35205078
2
Properties=species:S:1:pos:R:3:forces:R:3 energy=167.29525065462886 pbc="F F F"
K        0.00000000       0.00000000       0.00000000       0.00000000       0.00000000   -1353.73889160
K        0.00000000       0.00000000       0.41515152       0.00000000       0.00000000    1353.73889160
2
Properties=species:S:1:pos:R:3:forces:R:3 energy=107.45913005232794 pbc="F F F"
K        0.00000000       0.00000000       0.00000000       0.00000000       0.00000000    -748.96160889
K        0.00000000       0.00000000       0.47393939       0.00000000       0.00000000     748.96160889
2
Properties=species:S:1:pos:R:3:forces:R:3 energy=73.70656657893325 pbc="F F F"
K        0.00000000       0.00000000       0.00000000       0.00000000       0.00000000    -431.89999390
K        0.00000000       0.00000000       0.53272727       0.00000000       0.00000000     431.89999390
2
Properties=species:S:1:pos:R:3:forces:R:3 energy=53.910614742007176 pbc="F F F"
K        0.00000000       0.00000000       0.00000000       0.00000000       0.00000000    -258.38134766
K        0.00000000       0.00000000       0.59151515       0.00000000       0.00000000     258.38134766
2
Properties=species:S:1:pos:R:3:forces:R:3 energy=41.86694409721377 pbc="F F F"
K        0.00000000       0.00000000       0.00000000       0.00000000       0.00000000    -160.42965698
K        0.00000000       0.00000000       0.65030303       0.00000000       0.00000000     160.42965698
2
Properties=species:S:1:pos:R:3:forces:R:3 energy=34.244530477798975 pbc="F F F"
K        0.00000000       0.00000000       0.00000000       0.00000000       0.00000000    -103.98335266
K        0.00000000       0.00000000       0.70909091       0.00000000       0.00000000     103.98335266
2
Properties=species:S:1:pos:R:3:forces:R:3 energy=29.18272477487607 pbc="F F F"
K        0.00000000       0.00000000       0.00000000       0.00000000       0.00000000     -71.18060303
K        0.00000000       0.00000000       0.76787879       0.00000000       0.00000000      71.18060303
2
Properties=species:S:1:pos:R:3:forces:R:3 energy=25.60498890884321 pbc="F F F"
K        0.00000000       0.00000000       0.00000000       0.00000000       0.00000000     -52.31272125
K        0.00000000       0.00000000       0.82666667       0.00000000       0.00000000      52.31272125
2
Properties=species:S:1:pos:R:3:forces:R:3 energy=22.867283728815472 pbc="F F F"
K        0.00000000       0.00000000       0.00000000       0.00000000       0.00000000     -41.92399597
K        0.00000000       0.00000000       0.88545455       0.00000000       0.00000000      41.92399597
2
Properties=species:S:1:pos:R:3:forces:R:3 energy=20.573016144088616 pbc="F F F"
K        0.00000000       0.00000000       0.00000000       0.00000000       0.00000000     -36.81450653
K        0.00000000       0.00000000       0.94424242       0.00000000       0.00000000      36.81450653
2
Properties=species:S:1:pos:R:3:forces:R:3 energy=18.475356177593838 pbc="F F F"
K        0.00000000       0.00000000       0.00000000       0.00000000       0.00000000     -34.95986938
K        0.00000000       0.00000000       1.00303030       0.00000000       0.00000000      34.95986938
2
Properties=species:S:1:pos:R:3:forces:R:3 energy=16.42784616037982 pbc="F F F"
K        0.00000000       0.00000000       0.00000000       0.00000000       0.00000000     -34.88317871
K        0.00000000       0.00000000       1.06181818       0.00000000       0.00000000      34.88317871
2
Properties=species:S:1:pos:R:3:forces:R:3 energy=14.365400694046071 pbc="F F F"
K        0.00000000       0.00000000       0.00000000       0.00000000       0.00000000     -35.23595810
K        0.00000000       0.00000000       1.12060606       0.00000000       0.00000000      35.23595810
2
Properties=species:S:1:pos:R:3:forces:R:3 energy=12.304620393753925 pbc="F F F"
K        0.00000000       0.00000000       0.00000000       0.00000000       0.00000000     -34.59780502
K        0.00000000       0.00000000       1.17939394       0.00000000       0.00000000      34.59780502
2
Properties=species:S:1:pos:R:3:forces:R:3 energy=10.334705298346735 pbc="F F F"
K        0.00000000       0.00000000       0.00000000       0.00000000       0.00000000     -32.13616180
K        0.00000000       0.00000000       1.23818182       0.00000000       0.00000000      32.13616180
2
Properties=species:S:1:pos:R:3:forces:R:3 energy=8.546945892849871 pbc="F F F"
K        0.00000000       0.00000000       0.00000000       0.00000000       0.00000000     -28.59951210
K        0.00000000       0.00000000       1.29696970       0.00000000       0.00000000      28.59951210
2
Properties=species:S:1:pos:R:3:forces:R:3 energy=6.981040318618238 pbc="F F F"
K        0.00000000       0.00000000       0.00000000       0.00000000       0.00000000     -24.57314491
K        0.00000000       0.00000000       1.35575758       0.00000000       0.00000000      24.57314491
2
Properties=species:S:1:pos:R:3:forces:R:3 energy=5.669193704238381 pbc="F F F"
K        0.00000000       0.00000000       0.00000000       0.00000000       0.00000000     -20.00284195
K        0.00000000       0.00000000       1.41454545       0.00000000       0.00000000      20.00284195
2
Properties=species:S:1:pos:R:3:forces:R:3 energy=4.626451236316772 pbc="F F F"
K        0.00000000       0.00000000       0.00000000       0.00000000       0.00000000     -15.56850719
K        0.00000000       0.00000000       1.47333333       0.00000000       0.00000000      15.56850719
2
Properties=species:S:1:pos:R:3:forces:R:3 energy=3.8220235680586327 pbc="F F F"
K        0.00000000       0.00000000       0.00000000       0.00000000       0.00000000     -11.96298695
K        0.00000000       0.00000000       1.53212121       0.00000000       0.00000000      11.96298695
2
Properties=species:S:1:pos:R:3:forces:R:3 energy=3.201462841814182 pbc="F F F"
K        0.00000000       0.00000000       0.00000000       0.00000000       0.00000000      -9.28269386
K        0.00000000       0.00000000       1.59090909       0.00000000       0.00000000       9.28269386
2
Properties=species:S:1:pos:R:3:forces:R:3 energy=2.7195327464914514 pbc="F F F"
K        0.00000000       0.00000000       0.00000000       0.00000000       0.00000000      -7.16275072
K        0.00000000       0.00000000       1.64969697       0.00000000       0.00000000       7.16275072
2
Properties=species:S:1:pos:R:3:forces:R:3 energy=2.3571991728417325 pbc="F F F"
K        0.00000000       0.00000000       0.00000000       0.00000000       0.00000000      -5.17481899
K        0.00000000       0.00000000       1.70848485       0.00000000       0.00000000       5.17481899
2
Properties=species:S:1:pos:R:3:forces:R:3 energy=2.1048791720139497 pbc="F F F"
K        0.00000000       0.00000000       0.00000000       0.00000000       0.00000000      -3.52461004
K        0.00000000       0.00000000       1.76727273       0.00000000       0.00000000       3.52461004
2
Properties=species:S:1:pos:R:3:forces:R:3 energy=1.9241379316027425 pbc="F F F"
K        0.00000000       0.00000000       0.00000000       0.00000000       0.00000000      -2.78925920
K        0.00000000       0.00000000       1.82606061       0.00000000       0.00000000       2.78925920
2
Properties=species:S:1:pos:R:3:forces:R:3 energy=1.7621028540208523 pbc="F F F"
K        0.00000000       0.00000000       0.00000000       0.00000000       0.00000000      -2.80122042
K        0.00000000       0.00000000       1.88484848       0.00000000       0.00000000       2.80122042
2
Properties=species:S:1:pos:R:3:forces:R:3 energy=1.5902212351779208 pbc="F F F"
K        0.00000000       0.00000000       0.00000000       0.00000000       0.00000000      -3.05751204
K        0.00000000       0.00000000       1.94363636       0.00000000       0.00000000       3.05751204
2
Properties=species:S:1:pos:R:3:forces:R:3 energy=1.4028960333708684 pbc="F F F"
K        0.00000000       0.00000000       0.00000000       0.00000000       0.00000000      -3.30527377
K        0.00000000       0.00000000       2.00242424       0.00000000       0.00000000       3.30527377
2
Properties=species:S:1:pos:R:3:forces:R:3 energy=1.2031095897597635 pbc="F F F"
K        0.00000000       0.00000000       0.00000000       0.00000000       0.00000000      -3.47737837
K        0.00000000       0.00000000       2.06121212       0.00000000       0.00000000       3.47737837
2
Properties=species:S:1:pos:R:3:forces:R:3 energy=0.9958025028397682 pbc="F F F"
K        0.00000000       0.00000000       0.00000000       0.00000000       0.00000000      -3.55953813
K        0.00000000       0.00000000       2.12000000       0.00000000       0.00000000       3.55953813
2
Properties=species:S:1:pos:R:3:forces:R:3 energy=0.786571514874844 pbc="F F F"
K        0.00000000       0.00000000       0.00000000       0.00000000       0.00000000      -3.54118180
K        0.00000000       0.00000000       2.17878788       0.00000000       0.00000000       3.54118180
2
Properties=species:S:1:pos:R:3:forces:R:3 energy=0.5814530151566369 pbc="F F F"
K        0.00000000       0.00000000       0.00000000       0.00000000       0.00000000      -3.42119551
K        0.00000000       0.00000000       2.23757576       0.00000000       0.00000000       3.42119551
2
Properties=species:S:1:pos:R:3:forces:R:3 energy=0.38592875779394703 pbc="F F F"
K        0.00000000       0.00000000       0.00000000       0.00000000       0.00000000      -3.21949577
K        0.00000000       0.00000000       2.29636364       0.00000000       0.00000000       3.21949577
2
Properties=species:S:1:pos:R:3:forces:R:3 energy=0.2039129999840589 pbc="F F F"
K        0.00000000       0.00000000       0.00000000       0.00000000       0.00000000      -2.96679568
K        0.00000000       0.00000000       2.35515152       0.00000000       0.00000000       2.96679568
2
Properties=species:S:1:pos:R:3:forces:R:3 energy=0.03756870317102237 pbc="F F F"
K        0.00000000       0.00000000       0.00000000       0.00000000       0.00000000      -2.69017553
K        0.00000000       0.00000000       2.41393939       0.00000000       0.00000000       2.69017553
2
Properties=species:S:1:pos:R:3:forces:R:3 energy=-0.11229353781859958 pbc="F F F"
K        0.00000000       0.00000000       0.00000000       0.00000000       0.00000000      -2.40857577
K        0.00000000       0.00000000       2.47272727       0.00000000       0.00000000       2.40857577
2
Properties=species:S:1:pos:R:3:forces:R:3 energy=-0.24576790132335719 pbc="F F F"
K        0.00000000       0.00000000       0.00000000       0.00000000       0.00000000      -2.13430834
K        0.00000000       0.00000000       2.53151515       0.00000000       0.00000000       2.13430834
2
Properties=species:S:1:pos:R:3:forces:R:3 energy=-0.36353373082207285 pbc="F F F"
K        0.00000000       0.00000000       0.00000000       0.00000000       0.00000000      -1.87514901
K        0.00000000       0.00000000       2.59030303       0.00000000       0.00000000       1.87514901
2
Properties=species:S:1:pos:R:3:forces:R:3 energy=-0.4666256984236524 pbc="F F F"
K        0.00000000       0.00000000       0.00000000       0.00000000       0.00000000      -1.63562226
K        0.00000000       0.00000000       2.64909091       0.00000000       0.00000000       1.63562226
2
Properties=species:S:1:pos:R:3:forces:R:3 energy=-0.5562768620855931 pbc="F F F"
K        0.00000000       0.00000000       0.00000000       0.00000000       0.00000000      -1.41816032
K        0.00000000       0.00000000       2.70787879       0.00000000       0.00000000       1.41816032
2
Properties=species:S:1:pos:R:3:forces:R:3 energy=-0.6338309294527733 pbc="F F F"
K        0.00000000       0.00000000       0.00000000       0.00000000       0.00000000      -1.22434258
K        0.00000000       0.00000000       2.76666667       0.00000000       0.00000000       1.22434258
2
Properties=species:S:1:pos:R:3:forces:R:3 energy=-0.700716919547779 pbc="F F F"
K        0.00000000       0.00000000       0.00000000       0.00000000       0.00000000      -1.05535638
K        0.00000000       0.00000000       2.82545455       0.00000000       0.00000000       1.05535638
2
Properties=species:S:1:pos:R:3:forces:R:3 energy=-0.758405365736294 pbc="F F F"
K        0.00000000       0.00000000       0.00000000       0.00000000       0.00000000      -0.91132027
K        0.00000000       0.00000000       2.88424242       0.00000000       0.00000000       0.91132027
2
Properties=species:S:1:pos:R:3:forces:R:3 energy=-0.8083219038313516 pbc="F F F"
K        0.00000000       0.00000000       0.00000000       0.00000000       0.00000000      -0.79047763
K        0.00000000       0.00000000       2.94303030       0.00000000       0.00000000       0.79047763
2
Properties=species:S:1:pos:R:3:forces:R:3 energy=-0.8517343238753314 pbc="F F F"
K        0.00000000       0.00000000       0.00000000       0.00000000       0.00000000      -0.68940663
K        0.00000000       0.00000000       3.00181818       0.00000000       0.00000000       0.68940663
2
Properties=species:S:1:pos:R:3:forces:R:3 energy=-0.88969044309317 pbc="F F F"
K        0.00000000       0.00000000       0.00000000       0.00000000       0.00000000      -0.60424602
K        0.00000000       0.00000000       3.06060606       0.00000000       0.00000000       0.60424602
2
Properties=species:S:1:pos:R:3:forces:R:3 energy=-0.9230312264178088 pbc="F F F"
K        0.00000000       0.00000000       0.00000000       0.00000000       0.00000000      -0.53201240
K        0.00000000       0.00000000       3.11939394       0.00000000       0.00000000       0.53201240
2
Properties=species:S:1:pos:R:3:forces:R:3 energy=-0.9524628162435289 pbc="F F F"
K        0.00000000       0.00000000       0.00000000       0.00000000       0.00000000      -0.47108072
K        0.00000000       0.00000000       3.17818182       0.00000000       0.00000000       0.47108072
2
Properties=species:S:1:pos:R:3:forces:R:3 energy=-0.9786247914155732 pbc="F F F"
K        0.00000000       0.00000000       0.00000000       0.00000000       0.00000000      -0.42065585
K        0.00000000       0.00000000       3.23696970       0.00000000       0.00000000       0.42065585
2
Properties=species:S:1:pos:R:3:forces:R:3 energy=-1.0021079547568665 pbc="F F F"
K        0.00000000       0.00000000       0.00000000       0.00000000       0.00000000      -0.37969697
K        0.00000000       0.00000000       3.29575758       0.00000000       0.00000000       0.37969697
2
Properties=species:S:1:pos:R:3:forces:R:3 energy=-1.0234127591202726 pbc="F F F"
K        0.00000000       0.00000000       0.00000000       0.00000000       0.00000000      -0.34608504
K        0.00000000       0.00000000       3.35454545       0.00000000       0.00000000       0.34608504
2
Properties=species:S:1:pos:R:3:forces:R:3 energy=-1.0428790340963803 pbc="F F F"
K        0.00000000       0.00000000       0.00000000       0.00000000       0.00000000      -0.31651619
K        0.00000000       0.00000000       3.41333333       0.00000000       0.00000000       0.31651619
2
Properties=species:S:1:pos:R:3:forces:R:3 energy=-1.060631550133777 pbc="F F F"
K        0.00000000       0.00000000       0.00000000       0.00000000       0.00000000      -0.28717151
K        0.00000000       0.00000000       3.47212121       0.00000000       0.00000000       0.28717151
2
Properties=species:S:1:pos:R:3:forces:R:3 energy=-1.0765822640926594 pbc="F F F"
K        0.00000000       0.00000000       0.00000000       0.00000000       0.00000000      -0.25476623
K        0.00000000       0.00000000       3.53090909       0.00000000       0.00000000       0.25476623
2
Properties=species:S:1:pos:R:3:forces:R:3 energy=-1.090489203466179 pbc="F F F"
K        0.00000000       0.00000000       0.00000000       0.00000000       0.00000000      -0.21747723
K        0.00000000       0.00000000       3.58969697       0.00000000       0.00000000       0.21747723
2
Properties=species:S:1:pos:R:3:forces:R:3 energy=-1.1020568576093057 pbc="F F F"
K        0.00000000       0.00000000       0.00000000       0.00000000       0.00000000      -0.17536747
K        0.00000000       0.00000000       3.64848485       0.00000000       0.00000000       0.17536747
2
Properties=species:S:1:pos:R:3:forces:R:3 energy=-1.1110462482628543 pbc="F F F"
K        0.00000000       0.00000000       0.00000000       0.00000000       0.00000000      -0.13014355
K        0.00000000       0.00000000       3.70727273       0.00000000       0.00000000       0.13014355
2
Properties=species:S:1:pos:R:3:forces:R:3 energy=-1.117347382627036 pbc="F F F"
K        0.00000000       0.00000000       0.00000000       0.00000000       0.00000000      -0.08436829
K        0.00000000       0.00000000       3.76606061       0.00000000       0.00000000       0.08436829
2
Properties=species:S:1:pos:R:3:forces:R:3 energy=-1.1210039545310877 pbc="F F F"
K        0.00000000       0.00000000       0.00000000       0.00000000       0.00000000      -0.04049294
K        0.00000000       0.00000000       3.82484848       0.00000000       0.00000000       0.04049294
2
Properties=species:S:1:pos:R:3:forces:R:3 energy=-1.1221784631328833 pbc="F F F"
K        0.00000000       0.00000000       0.00000000       0.00000000       0.00000000      -0.00013656
K        0.00000000       0.00000000       3.88363636       0.00000000       0.00000000       0.00013656
2
Properties=species:S:1:pos:R:3:forces:R:3 energy=-1.1211012362846582 pbc="F F F"
K        0.00000000       0.00000000       0.00000000       0.00000000       0.00000000       0.03606299
K        0.00000000       0.00000000       3.94242424       0.00000000       0.00000000      -0.03606299
2
Properties=species:S:1:pos:R:3:forces:R:3 energy=-1.1180194724097843 pbc="F F F"
K        0.00000000       0.00000000       0.00000000       0.00000000       0.00000000       0.06813023
K        0.00000000       0.00000000       4.00121212       0.00000000       0.00000000      -0.06813023
2
Properties=species:S:1:pos:R:3:forces:R:3 energy=-1.1131682844211885 pbc="F F F"
K        0.00000000       0.00000000       0.00000000       0.00000000       0.00000000       0.09627205
K        0.00000000       0.00000000       4.06000000       0.00000000       0.00000000      -0.09627205
2
Properties=species:S:1:pos:R:3:forces:R:3 energy=-1.1067755920067022 pbc="F F F"
K        0.00000000       0.00000000       0.00000000       0.00000000       0.00000000       0.12056490
K        0.00000000       0.00000000       4.11878788       0.00000000       0.00000000      -0.12056490
2
Properties=species:S:1:pos:R:3:forces:R:3 energy=-1.0990704336583426 pbc="F F F"
K        0.00000000       0.00000000       0.00000000       0.00000000       0.00000000       0.14087844
K        0.00000000       0.00000000       4.17757576       0.00000000       0.00000000      -0.14087844
2
Properties=species:S:1:pos:R:3:forces:R:3 energy=-1.0902960326907967 pbc="F F F"
K        0.00000000       0.00000000       0.00000000       0.00000000       0.00000000       0.15687968
K        0.00000000       0.00000000       4.23636364       0.00000000       0.00000000      -0.15687968
2
Properties=species:S:1:pos:R:3:forces:R:3 energy=-1.080720960136198 pbc="F F F"
K        0.00000000       0.00000000       0.00000000       0.00000000       0.00000000       0.16795613
K        0.00000000       0.00000000       4.29515152       0.00000000       0.00000000      -0.16795613
2
Properties=species:S:1:pos:R:3:forces:R:3 energy=-1.0706662143286194 pbc="F F F"
K        0.00000000       0.00000000       0.00000000       0.00000000       0.00000000       0.17299706
K        0.00000000       0.00000000       4.35393939       0.00000000       0.00000000      -0.17299706
2
Properties=species:S:1:pos:R:3:forces:R:3 energy=-1.0605350162893248 pbc="F F F"
K        0.00000000       0.00000000       0.00000000       0.00000000       0.00000000       0.17016527
K        0.00000000       0.00000000       4.41272727       0.00000000       0.00000000      -0.17016527
2
Properties=species:S:1:pos:R:3:forces:R:3 energy=-1.0508591834261904 pbc="F F F"
K        0.00000000       0.00000000       0.00000000       0.00000000       0.00000000       0.15713361
K        0.00000000       0.00000000       4.47151515       0.00000000       0.00000000      -0.15713361
2
Properties=species:S:1:pos:R:3:forces:R:3 energy=-1.042286644282033 pbc="F F F"
K        0.00000000       0.00000000       0.00000000       0.00000000       0.00000000       0.13267364
K        0.00000000       0.00000000       4.53030303       0.00000000       0.00000000      -0.13267364
2
Properties=species:S:1:pos:R:3:forces:R:3 energy=-1.0354220437689847 pbc="F F F"
K        0.00000000       0.00000000       0.00000000       0.00000000       0.00000000       0.10024337
K        0.00000000       0.00000000       4.58909091       0.00000000       0.00000000      -0.10024337
2
Properties=species:S:1:pos:R:3:forces:R:3 energy=-1.030433041605647 pbc="F F F"
K        0.00000000       0.00000000       0.00000000       0.00000000       0.00000000       0.07151741
K        0.00000000       0.00000000       4.64787879       0.00000000       0.00000000      -0.07151741
2
Properties=species:S:1:pos:R:3:forces:R:3 energy=-1.026595223864744 pbc="F F F"
K        0.00000000       0.00000000       0.00000000       0.00000000       0.00000000       0.06394148
K        0.00000000       0.00000000       4.70666667       0.00000000       0.00000000      -0.06394148
2
Properties=species:S:1:pos:R:3:forces:R:3 energy=-1.0222441068657175 pbc="F F F"
K        0.00000000       0.00000000       0.00000000       0.00000000       0.00000000       0.09009096
K        0.00000000       0.00000000       4.76545455       0.00000000       0.00000000      -0.09009096
2
Properties=species:S:1:pos:R:3:forces:R:3 energy=-1.0153604462838792 pbc="F F F"
K        0.00000000       0.00000000       0.00000000       0.00000000       0.00000000       0.14860412
K        0.00000000       0.00000000       4.82424242       0.00000000       0.00000000      -0.14860412
2
Properties=species:S:1:pos:R:3:forces:R:3 energy=-1.0043838523370479 pbc="F F F"
K        0.00000000       0.00000000       0.00000000       0.00000000       0.00000000       0.22696272
K        0.00000000       0.00000000       4.88303030       0.00000000       0.00000000      -0.22696272
2
Properties=species:S:1:pos:R:3:forces:R:3 energy=-0.9885564797628457 pbc="F F F"
K        0.00000000       0.00000000       0.00000000       0.00000000       0.00000000       0.31158131
K        0.00000000       0.00000000       4.94181818       0.00000000       0.00000000      -0.31158131
2
Properties=species:S:1:pos:R:3:forces:R:3 energy=-0.9677904915165726 pbc="F F F"
K        0.00000000       0.00000000       0.00000000       0.00000000       0.00000000       0.39423618
K        0.00000000       0.00000000       5.00060606       0.00000000       0.00000000      -0.39423618
2
Properties=species:S:1:pos:R:3:forces:R:3 energy=-0.9423045228163396 pbc="F F F"
K        0.00000000       0.00000000       0.00000000       0.00000000       0.00000000       0.47173554
K        0.00000000       0.00000000       5.05939394       0.00000000       0.00000000      -0.47173554
2
Properties=species:S:1:pos:R:3:forces:R:3 energy=-0.9124705409850322 pbc="F F F"
K        0.00000000       0.00000000       0.00000000       0.00000000       0.00000000       0.54171360
K        0.00000000       0.00000000       5.11818182       0.00000000       0.00000000      -0.54171360
2
Properties=species:S:1:pos:R:3:forces:R:3 energy=-0.8788773312857435 pbc="F F F"
K        0.00000000       0.00000000       0.00000000       0.00000000       0.00000000       0.59802806
K        0.00000000       0.00000000       5.17696970       0.00000000       0.00000000      -0.59802806
2
Properties=species:S:1:pos:R:3:forces:R:3 energy=-0.8426601716600226 pbc="F F F"
K        0.00000000       0.00000000       0.00000000       0.00000000       0.00000000       0.62871832
K        0.00000000       0.00000000       5.23575758       0.00000000       0.00000000      -0.62871832
2
Properties=species:S:1:pos:R:3:forces:R:3 energy=-0.805677984387492 pbc="F F F"
K        0.00000000       0.00000000       0.00000000       0.00000000       0.00000000       0.62336653
K        0.00000000       0.00000000       5.29454545       0.00000000       0.00000000      -0.62336653
2
Properties=species:S:1:pos:R:3:forces:R:3 energy=-0.7698256948446023 pbc="F F F"
K        0.00000000       0.00000000       0.00000000       0.00000000       0.00000000       0.59613693
K        0.00000000       0.00000000       5.35333333       0.00000000       0.00000000      -0.59613693
2
Properties=species:S:1:pos:R:3:forces:R:3 energy=-0.7350148792196177 pbc="F F F"
K        0.00000000       0.00000000       0.00000000       0.00000000       0.00000000       0.59716105
K        0.00000000       0.00000000       5.41212121       0.00000000       0.00000000      -0.59716105
2
Properties=species:S:1:pos:R:3:forces:R:3 energy=-0.6986816757754953 pbc="F F F"
K        0.00000000       0.00000000       0.00000000       0.00000000       0.00000000       0.64120865
K        0.00000000       0.00000000       5.47090909       0.00000000       0.00000000      -0.64120865
2
Properties=species:S:1:pos:R:3:forces:R:3 energy=-0.6603587378825501 pbc="F F F"
K        0.00000000       0.00000000       0.00000000       0.00000000       0.00000000       0.64945185
K        0.00000000       0.00000000       5.52969697       0.00000000       0.00000000      -0.64945185
2
Properties=species:S:1:pos:R:3:forces:R:3 energy=-0.6238430380953021 pbc="F F F"
K        0.00000000       0.00000000       0.00000000       0.00000000       0.00000000       0.58461165
K        0.00000000       0.00000000       5.58848485       0.00000000       0.00000000      -0.58461165
2
Properties=species:S:1:pos:R:3:forces:R:3 energy=-0.591592442713708 pbc="F F F"
K        0.00000000       0.00000000       0.00000000       0.00000000       0.00000000       0.52280873
K        0.00000000       0.00000000       5.64727273       0.00000000       0.00000000      -0.52280873
2
Properties=species:S:1:pos:R:3:forces:R:3 energy=-0.5604993839174965 pbc="F F F"
K        0.00000000       0.00000000       0.00000000       0.00000000       0.00000000       0.55168724
K        0.00000000       0.00000000       5.70606061       0.00000000       0.00000000      -0.55168724
2
Properties=species:S:1:pos:R:3:forces:R:3 energy=-0.5257760520520133 pbc="F F F"
K        0.00000000       0.00000000       0.00000000       0.00000000       0.00000000       0.61969131
K        0.00000000       0.00000000       5.76484848       0.00000000       0.00000000      -0.61969131
2
Properties=species:S:1:pos:R:3:forces:R:3 energy=-0.49026482689202566 pbc="F F F"
K        0.00000000       0.00000000       0.00000000       0.00000000       0.00000000       0.55896842
K        0.00000000       0.00000000       5.82363636       0.00000000       0.00000000      -0.55896842
2
Properties=species:S:1:pos:R:3:forces:R:3 energy=-0.46313709879502335 pbc="F F F"
K        0.00000000       0.00000000       0.00000000       0.00000000       0.00000000       0.35323119
K        0.00000000       0.00000000       5.88242424       0.00000000       0.00000000      -0.35323119
2
Properties=species:S:1:pos:R:3:forces:R:3 energy=-0.4487174308281899 pbc="F F F"
K        0.00000000       0.00000000       0.00000000       0.00000000       0.00000000       0.14804055
K        0.00000000       0.00000000       5.94121212       0.00000000       0.00000000      -0.14804055
2
Properties=species:S:1:pos:R:3:forces:R:3 energy=-0.44321893960223724 pbc="F F F"
K        0.00000000       0.00000000       0.00000000       0.00000000       0.00000000       0.06572454
K        0.00000000       0.00000000       6.00000000       0.00000000       0.00000000      -0.06572454
