2
Properties=species:S:1:pos:R:3:forces:R:3 energy=5422.599207852446 pbc="F F F"
Kr       0.00000000       0.00000000       0.00000000       0.00000000       0.00000000  -87404.58593750
Kr       0.00000000       0.00000000       0.18000000       0.00000000       0.00000000   87404.58593750
2
Properties=species:S:1:pos:R:3:forces:R:3 energy=2277.7478894962387 pbc="F F F"
Kr       0.00000000       0.00000000       0.00000000       0.00000000       0.00000000  -31001.75390625
Kr       0.00000000       0.00000000       0.23878788       0.00000000       0.00000000   31001.75390625
2
Properties=species:S:1:pos:R:3:forces:R:3 energy=1074.506800632219 pbc="F F F"
Kr       0.00000000       0.00000000       0.00000000       0.00000000       0.00000000  -12957.55468750
Kr       0.00000000       0.00000000       0.29757576       0.00000000       0.00000000   12957.55468750
2
Properties=species:S:1:pos:R:3:forces:R:3 energy=546.6950940955858 pbc="F F F"
Kr       0.00000000       0.00000000       0.00000000       0.00000000       0.00000000   -6005.14892578
Kr       0.00000000       0.00000000       0.35636364       0.00000000       0.00000000    6005.14892578
2
Properties=species:S:1:pos:R:3:forces:R:3 energy=293.9554700816518 pbc="F F F"
Kr       0.00000000       0.00000000       0.00000000       0.00000000       0.00000000   -2984.42431641
Kr       0.00000000       0.00000000       0.41515152       0.00000000       0.00000000    2984.42431641
2
Properties=species:S:1:pos:R:3:forces:R:3 energy=165.28565504668563 pbc="F F F"
Kr       0.00000000       0.00000000       0.00000000       0.00000000       0.00000000   -1562.07922363
Kr       0.00000000       0.00000000       0.47393939       0.00000000       0.00000000    1562.07922363
2
Properties=species:S:1:pos:R:3:forces:R:3 energy=96.62085253976561 pbc="F F F"
Kr       0.00000000       0.00000000       0.00000000       0.00000000       0.00000000    -852.55145264
Kr       0.00000000       0.00000000       0.53272727       0.00000000       0.00000000     852.55145264
2
Properties=species:S:1:pos:R:3:forces:R:3 energy=58.520339163877026 pbc="F F F"
Kr       0.00000000       0.00000000       0.00000000       0.00000000       0.00000000    -482.21997070
Kr       0.00000000       0.00000000       0.59151515       0.00000000       0.00000000     482.21997070
2
Properties=species:S:1:pos:R:3:forces:R:3 energy=36.65398722196237 pbc="F F F"
Kr       0.00000000       0.00000000       0.00000000       0.00000000       0.00000000    -281.45294189
Kr       0.00000000       0.00000000       0.65030303       0.00000000       0.00000000     281.45294189
2
Properties=species:S:1:pos:R:3:forces:R:3 energy=23.72163727868287 pbc="F F F"
Kr       0.00000000       0.00000000       0.00000000       0.00000000       0.00000000    -169.03689575
Kr       0.00000000       0.00000000       0.70909091       0.00000000       0.00000000     169.03689575
2
Properties=species:S:1:pos:R:3:forces:R:3 energy=15.85581195189238 pbc="F F F"
Kr       0.00000000       0.00000000       0.00000000       0.00000000       0.00000000    -104.36350250
Kr       0.00000000       0.00000000       0.76787879       0.00000000       0.00000000     104.36350250
2
Properties=species:S:1:pos:R:3:forces:R:3 energy=10.935450914541482 pbc="F F F"
Kr       0.00000000       0.00000000       0.00000000       0.00000000       0.00000000     -66.28656006
Kr       0.00000000       0.00000000       0.82666667       0.00000000       0.00000000      66.28656006
2
Properties=species:S:1:pos:R:3:forces:R:3 energy=7.774110414788575 pbc="F F F"
Kr       0.00000000       0.00000000       0.00000000       0.00000000       0.00000000     -43.08419418
Kr       0.00000000       0.00000000       0.88545455       0.00000000       0.00000000      43.08419418
2
Properties=species:S:1:pos:R:3:forces:R:3 energy=5.701848620165102 pbc="F F F"
Kr       0.00000000       0.00000000       0.00000000       0.00000000       0.00000000     -28.58997345
Kr       0.00000000       0.00000000       0.94424242       0.00000000       0.00000000      28.58997345
2
Properties=species:S:1:pos:R:3:forces:R:3 energy=4.293060789615151 pbc="F F F"
Kr       0.00000000       0.00000000       0.00000000       0.00000000       0.00000000     -20.11533356
Kr       0.00000000       0.00000000       1.00303030       0.00000000       0.00000000      20.11533356
2
Properties=species:S:1:pos:R:3:forces:R:3 energy=3.2857686493476765 pbc="F F F"
Kr       0.00000000       0.00000000       0.00000000       0.00000000       0.00000000     -14.38946533
Kr       0.00000000       0.00000000       1.06181818       0.00000000       0.00000000      14.38946533
2
Properties=species:S:1:pos:R:3:forces:R:3 energy=2.57094635503626 pbc="F F F"
Kr       0.00000000       0.00000000       0.00000000       0.00000000       0.00000000     -10.20719719
Kr       0.00000000       0.00000000       1.12060606       0.00000000       0.00000000      10.20719719
2
Properties=species:S:1:pos:R:3:forces:R:3 energy=2.0574752461753287 pbc="F F F"
Kr       0.00000000       0.00000000       0.00000000       0.00000000       0.00000000      -7.44682884
Kr       0.00000000       0.00000000       1.17939394       0.00000000       0.00000000       7.44682884
2
Properties=species:S:1:pos:R:3:forces:R:3 energy=1.6792400016201374 pbc="F F F"
Kr       0.00000000       0.00000000       0.00000000       0.00000000       0.00000000      -5.51954651
Kr       0.00000000       0.00000000       1.23818182       0.00000000       0.00000000       5.51954651
2
Properties=species:S:1:pos:R:3:forces:R:3 energy=1.4001080211147703 pbc="F F F"
Kr       0.00000000       0.00000000       0.00000000       0.00000000       0.00000000      -4.02766752
Kr       0.00000000       0.00000000       1.29696970       0.00000000       0.00000000       4.02766752
2
Properties=species:S:1:pos:R:3:forces:R:3 energy=1.200734013983364 pbc="F F F"
Kr       0.00000000       0.00000000       0.00000000       0.00000000       0.00000000      -2.79661012
Kr       0.00000000       0.00000000       1.35575758       0.00000000       0.00000000       2.79661012
2
Properties=species:S:1:pos:R:3:forces:R:3 energy=1.0656434722025678 pbc="F F F"
Kr       0.00000000       0.00000000       0.00000000       0.00000000       0.00000000      -1.85371935
Kr       0.00000000       0.00000000       1.41454545       0.00000000       0.00000000       1.85371935
2
Properties=species:S:1:pos:R:3:forces:R:3 energy=0.9761864223721993 pbc="F F F"
Kr       0.00000000       0.00000000       0.00000000       0.00000000       0.00000000      -1.24394000
Kr       0.00000000       0.00000000       1.47333333       0.00000000       0.00000000       1.24394000
2
Properties=species:S:1:pos:R:3:forces:R:3 energy=0.9136038120082906 pbc="F F F"
Kr       0.00000000       0.00000000       0.00000000       0.00000000       0.00000000      -0.92798090
Kr       0.00000000       0.00000000       1.53212121       0.00000000       0.00000000       0.92798090
2
Properties=species:S:1:pos:R:3:forces:R:3 energy=0.8629407174474164 pbc="F F F"
Kr       0.00000000       0.00000000       0.00000000       0.00000000       0.00000000      -0.82270098
Kr       0.00000000       0.00000000       1.59090909       0.00000000       0.00000000       0.82270098
2
Properties=species:S:1:pos:R:3:forces:R:3 energy=0.8146241605732993 pbc="F F F"
Kr       0.00000000       0.00000000       0.00000000       0.00000000       0.00000000      -0.83293998
Kr       0.00000000       0.00000000       1.64969697       0.00000000       0.00000000       0.83293998
2
Properties=species:S:1:pos:R:3:forces:R:3 energy=0.7642739896145809 pbc="F F F"
Kr       0.00000000       0.00000000       0.00000000       0.00000000       0.00000000      -0.88173944
Kr       0.00000000       0.00000000       1.70848485       0.00000000       0.00000000       0.88173944
2
Properties=species:S:1:pos:R:3:forces:R:3 energy=0.7111179789689559 pbc="F F F"
Kr       0.00000000       0.00000000       0.00000000       0.00000000       0.00000000      -0.92283469
Kr       0.00000000       0.00000000       1.76727273       0.00000000       0.00000000       0.92283469
2
Properties=species:S:1:pos:R:3:forces:R:3 energy=0.656413096816117 pbc="F F F"
Kr       0.00000000       0.00000000       0.00000000       0.00000000       0.00000000      -0.93158782
Kr       0.00000000       0.00000000       1.82606061       0.00000000       0.00000000       0.93158782
2
Properties=species:S:1:pos:R:3:forces:R:3 energy=0.602428308089129 pbc="F F F"
Kr       0.00000000       0.00000000       0.00000000       0.00000000       0.00000000      -0.89782095
Kr       0.00000000       0.00000000       1.88484848       0.00000000       0.00000000       0.89782095
2
Properties=species:S:1:pos:R:3:forces:R:3 energy=0.5516201636256068 pbc="F F F"
Kr       0.00000000       0.00000000       0.00000000       0.00000000       0.00000000      -0.82517165
Kr       0.00000000       0.00000000       1.94363636       0.00000000       0.00000000       0.82517165
2
Properties=species:S:1:pos:R:3:forces:R:3 energy=0.5059016585006565 pbc="F F F"
Kr       0.00000000       0.00000000       0.00000000       0.00000000       0.00000000      -0.72741014
Kr       0.00000000       0.00000000       2.00242424       0.00000000       0.00000000       0.72741014
2
Properties=species:S:1:pos:R:3:forces:R:3 energy=0.46626902517117974 pbc="F F F"
Kr       0.00000000       0.00000000       0.00000000       0.00000000       0.00000000      -0.62060189
Kr       0.00000000       0.00000000       2.06121212       0.00000000       0.00000000       0.62060189
2
Properties=species:S:1:pos:R:3:forces:R:3 energy=0.43285916759483756 pbc="F F F"
Kr       0.00000000       0.00000000       0.00000000       0.00000000       0.00000000      -0.51745504
Kr       0.00000000       0.00000000       2.12000000       0.00000000       0.00000000       0.51745504
2
Properties=species:S:1:pos:R:3:forces:R:3 energy=0.40519210758241864 pbc="F F F"
Kr       0.00000000       0.00000000       0.00000000       0.00000000       0.00000000      -0.42630503
Kr       0.00000000       0.00000000       2.17878788       0.00000000       0.00000000       0.42630503
2
Properties=species:S:1:pos:R:3:forces:R:3 energy=0.38239510143001737 pbc="F F F"
Kr       0.00000000       0.00000000       0.00000000       0.00000000       0.00000000      -0.35249990
Kr       0.00000000       0.00000000       2.23757576       0.00000000       0.00000000       0.35249990
2
Properties=species:S:1:pos:R:3:forces:R:3 energy=0.3633343915265645 pbc="F F F"
Kr       0.00000000       0.00000000       0.00000000       0.00000000       0.00000000      -0.29969117
Kr       0.00000000       0.00000000       2.29636364       0.00000000       0.00000000       0.29969117
2
Properties=species:S:1:pos:R:3:forces:R:3 energy=0.3467011150699051 pbc="F F F"
Kr       0.00000000       0.00000000       0.00000000       0.00000000       0.00000000      -0.27015978
Kr       0.00000000       0.00000000       2.35515152       0.00000000       0.00000000       0.27015978
2
Properties=species:S:1:pos:R:3:forces:R:3 energy=0.33110252134806034 pbc="F F F"
Kr       0.00000000       0.00000000       0.00000000       0.00000000       0.00000000      -0.26441765
Kr       0.00000000       0.00000000       2.41393939       0.00000000       0.00000000       0.26441765
2
Properties=species:S:1:pos:R:3:forces:R:3 energy=0.31517943348714667 pbc="F F F"
Kr       0.00000000       0.00000000       0.00000000       0.00000000       0.00000000      -0.28065631
Kr       0.00000000       0.00000000       2.47272727       0.00000000       0.00000000       0.28065631
2
Properties=species:S:1:pos:R:3:forces:R:3 energy=0.2977617943994846 pbc="F F F"
Kr       0.00000000       0.00000000       0.00000000       0.00000000       0.00000000      -0.31426176
Kr       0.00000000       0.00000000       2.53151515       0.00000000       0.00000000       0.31426176
2
Properties=species:S:1:pos:R:3:forces:R:3 energy=0.2780288371353986 pbc="F F F"
Kr       0.00000000       0.00000000       0.00000000       0.00000000       0.00000000      -0.35807827
Kr       0.00000000       0.00000000       2.59030303       0.00000000       0.00000000       0.35807827
2
Properties=species:S:1:pos:R:3:forces:R:3 energy=0.2556297336037334 pbc="F F F"
Kr       0.00000000       0.00000000       0.00000000       0.00000000       0.00000000      -0.40347037
Kr       0.00000000       0.00000000       2.64909091       0.00000000       0.00000000       0.40347037
2
Properties=species:S:1:pos:R:3:forces:R:3 energy=0.23072763290087592 pbc="F F F"
Kr       0.00000000       0.00000000       0.00000000       0.00000000       0.00000000      -0.44192269
Kr       0.00000000       0.00000000       2.70787879       0.00000000       0.00000000       0.44192269
2
Properties=species:S:1:pos:R:3:forces:R:3 energy=0.20394066256986798 pbc="F F F"
Kr       0.00000000       0.00000000       0.00000000       0.00000000       0.00000000      -0.46668166
Kr       0.00000000       0.00000000       2.76666667       0.00000000       0.00000000       0.46668166
2
Properties=species:S:1:pos:R:3:forces:R:3 energy=0.17620293819635735 pbc="F F F"
Kr       0.00000000       0.00000000       0.00000000       0.00000000       0.00000000      -0.47389433
Kr       0.00000000       0.00000000       2.82545455       0.00000000       0.00000000       0.47389433
2
Properties=species:S:1:pos:R:3:forces:R:3 energy=0.14857984169481853 pbc="F F F"
Kr       0.00000000       0.00000000       0.00000000       0.00000000       0.00000000      -0.46294668
Kr       0.00000000       0.00000000       2.88424242       0.00000000       0.00000000       0.46294668
2
Properties=species:S:1:pos:R:3:forces:R:3 energy=0.12208603565676475 pbc="F F F"
Kr       0.00000000       0.00000000       0.00000000       0.00000000       0.00000000      -0.43601549
Kr       0.00000000       0.00000000       2.94303030       0.00000000       0.00000000       0.43601549
2
Properties=species:S:1:pos:R:3:forces:R:3 energy=0.09755017735416574 pbc="F F F"
Kr       0.00000000       0.00000000       0.00000000       0.00000000       0.00000000      -0.39711118
Kr       0.00000000       0.00000000       3.00181818       0.00000000       0.00000000       0.39711118
2
Properties=species:S:1:pos:R:3:forces:R:3 energy=0.07553709572620049 pbc="F F F"
Kr       0.00000000       0.00000000       0.00000000       0.00000000       0.00000000      -0.35098505
Kr       0.00000000       0.00000000       3.06060606       0.00000000       0.00000000       0.35098505
2
Properties=species:S:1:pos:R:3:forces:R:3 energy=0.05633425068347715 pbc="F F F"
Kr       0.00000000       0.00000000       0.00000000       0.00000000       0.00000000      -0.30221286
Kr       0.00000000       0.00000000       3.11939394       0.00000000       0.00000000       0.30221286
2
Properties=species:S:1:pos:R:3:forces:R:3 energy=0.039980652687098994 pbc="F F F"
Kr       0.00000000       0.00000000       0.00000000       0.00000000       0.00000000      -0.25459424
Kr       0.00000000       0.00000000       3.17818182       0.00000000       0.00000000       0.25459424
2
Properties=species:S:1:pos:R:3:forces:R:3 energy=0.026322939340032468 pbc="F F F"
Kr       0.00000000       0.00000000       0.00000000       0.00000000       0.00000000      -0.21087553
Kr       0.00000000       0.00000000       3.23696970       0.00000000       0.00000000       0.21087553
2
Properties=species:S:1:pos:R:3:forces:R:3 energy=0.015077399594677455 pbc="F F F"
Kr       0.00000000       0.00000000       0.00000000       0.00000000       0.00000000      -0.17271703
Kr       0.00000000       0.00000000       3.29575758       0.00000000       0.00000000       0.17271703
2
Properties=species:S:1:pos:R:3:forces:R:3 energy=0.005892136530633578 pbc="F F F"
Kr       0.00000000       0.00000000       0.00000000       0.00000000       0.00000000      -0.14083235
Kr       0.00000000       0.00000000       3.35454545       0.00000000       0.00000000       0.14083235
2
Properties=species:S:1:pos:R:3:forces:R:3 energy=-0.0016039460158245936 pbc="F F F"
Kr       0.00000000       0.00000000       0.00000000       0.00000000       0.00000000      -0.11519948
Kr       0.00000000       0.00000000       3.41333333       0.00000000       0.00000000       0.11519948
2
Properties=species:S:1:pos:R:3:forces:R:3 energy=-0.007765009631270164 pbc="F F F"
Kr       0.00000000       0.00000000       0.00000000       0.00000000       0.00000000      -0.09529562
Kr       0.00000000       0.00000000       3.47212121       0.00000000       0.00000000       0.09529562
2
Properties=species:S:1:pos:R:3:forces:R:3 energy=-0.012904833410035843 pbc="F F F"
Kr       0.00000000       0.00000000       0.00000000       0.00000000       0.00000000      -0.08030864
Kr       0.00000000       0.00000000       3.53090909       0.00000000       0.00000000       0.08030864
2
Properties=species:S:1:pos:R:3:forces:R:3 energy=-0.01728540077967575 pbc="F F F"
Kr       0.00000000       0.00000000       0.00000000       0.00000000       0.00000000      -0.06930581
Kr       0.00000000       0.00000000       3.58969697       0.00000000       0.00000000       0.06930581
2
Properties=species:S:1:pos:R:3:forces:R:3 energy=-0.021113377579707805 pbc="F F F"
Kr       0.00000000       0.00000000       0.00000000       0.00000000       0.00000000      -0.06136005
Kr       0.00000000       0.00000000       3.64848485       0.00000000       0.00000000       0.06136005
2
Properties=species:S:1:pos:R:3:forces:R:3 energy=-0.024543200504257887 pbc="F F F"
Kr       0.00000000       0.00000000       0.00000000       0.00000000       0.00000000      -0.05563169
Kr       0.00000000       0.00000000       3.70727273       0.00000000       0.00000000       0.05563169
2
Properties=species:S:1:pos:R:3:forces:R:3 energy=-0.027683903453275312 pbc="F F F"
Kr       0.00000000       0.00000000       0.00000000       0.00000000       0.00000000      -0.05141636
Kr       0.00000000       0.00000000       3.76606061       0.00000000       0.00000000       0.05141636
2
Properties=species:S:1:pos:R:3:forces:R:3 energy=-0.03060731352516296 pbc="F F F"
Kr       0.00000000       0.00000000       0.00000000       0.00000000       0.00000000      -0.04816453
Kr       0.00000000       0.00000000       3.82484848       0.00000000       0.00000000       0.04816453
2
Properties=species:S:1:pos:R:3:forces:R:3 energy=-0.033357868218634235 pbc="F F F"
Kr       0.00000000       0.00000000       0.00000000       0.00000000       0.00000000      -0.04547685
Kr       0.00000000       0.00000000       3.88363636       0.00000000       0.00000000       0.04547685
2
Properties=species:S:1:pos:R:3:forces:R:3 energy=-0.0359599411763232 pbc="F F F"
Kr       0.00000000       0.00000000       0.00000000       0.00000000       0.00000000      -0.04308020
Kr       0.00000000       0.00000000       3.94242424       0.00000000       0.00000000       0.04308020
2
Properties=species:S:1:pos:R:3:forces:R:3 energy=-0.038425084755324426 pbc="F F F"
Kr       0.00000000       0.00000000       0.00000000       0.00000000       0.00000000      -0.04079355
Kr       0.00000000       0.00000000       4.00121212       0.00000000       0.00000000       0.04079355
2
Properties=species:S:1:pos:R:3:forces:R:3 energy=-0.0407559395911061 pbc="F F F"
Kr       0.00000000       0.00000000       0.00000000       0.00000000       0.00000000      -0.03849066
Kr       0.00000000       0.00000000       4.06000000       0.00000000       0.00000000       0.03849066
2
Properties=species:S:1:pos:R:3:forces:R:3 energy=-0.0429483782720742 pbc="F F F"
Kr       0.00000000       0.00000000       0.00000000       0.00000000       0.00000000      -0.03607258
Kr       0.00000000       0.00000000       4.11878788       0.00000000       0.00000000       0.03607258
2
Properties=species:S:1:pos:R:3:forces:R:3 energy=-0.04499328321448654 pbc="F F F"
Kr       0.00000000       0.00000000       0.00000000       0.00000000       0.00000000      -0.03345503
Kr       0.00000000       0.00000000       4.17757576       0.00000000       0.00000000       0.03345503
2
Properties=species:S:1:pos:R:3:forces:R:3 energy=-0.046876773042450894 pbc="F F F"
Kr       0.00000000       0.00000000       0.00000000       0.00000000       0.00000000      -0.03057482
Kr       0.00000000       0.00000000       4.23636364       0.00000000       0.00000000       0.03057482
2
Properties=species:S:1:pos:R:3:forces:R:3 energy=-0.048582460936794095 pbc="F F F"
Kr       0.00000000       0.00000000       0.00000000       0.00000000       0.00000000      -0.02740423
Kr       0.00000000       0.00000000       4.29515152       0.00000000       0.00000000       0.02740423
2
Properties=species:S:1:pos:R:3:forces:R:3 energy=-0.05009347449011271 pbc="F F F"
Kr       0.00000000       0.00000000       0.00000000       0.00000000       0.00000000      -0.02396246
Kr       0.00000000       0.00000000       4.35393939       0.00000000       0.00000000       0.02396246
2
Properties=species:S:1:pos:R:3:forces:R:3 energy=-0.051395658695466875 pbc="F F F"
Kr       0.00000000       0.00000000       0.00000000       0.00000000       0.00000000      -0.02030914
Kr       0.00000000       0.00000000       4.41272727       0.00000000       0.00000000       0.02030914
2
Properties=species:S:1:pos:R:3:forces:R:3 energy=-0.05247871218642923 pbc="F F F"
Kr       0.00000000       0.00000000       0.00000000       0.00000000       0.00000000      -0.01651950
Kr       0.00000000       0.00000000       4.47151515       0.00000000       0.00000000       0.01651950
2
Properties=species:S:1:pos:R:3:forces:R:3 energy=-0.05333641298437544 pbc="F F F"
Kr       0.00000000       0.00000000       0.00000000       0.00000000       0.00000000      -0.01264774
Kr       0.00000000       0.00000000       4.53030303       0.00000000       0.00000000       0.01264774
2
Properties=species:S:1:pos:R:3:forces:R:3 energy=-0.05396422753458198 pbc="F F F"
Kr       0.00000000       0.00000000       0.00000000       0.00000000       0.00000000      -0.00869504
Kr       0.00000000       0.00000000       4.58909091       0.00000000       0.00000000       0.00869504
2
Properties=species:S:1:pos:R:3:forces:R:3 energy=-0.05435600886459928 pbc="F F F"
Kr       0.00000000       0.00000000       0.00000000       0.00000000       0.00000000      -0.00460266
Kr       0.00000000       0.00000000       4.64787879       0.00000000       0.00000000       0.00460266
2
Properties=species:S:1:pos:R:3:forces:R:3 energy=-0.054500865667996556 pbc="F F F"
Kr       0.00000000       0.00000000       0.00000000       0.00000000       0.00000000      -0.00027985
Kr       0.00000000       0.00000000       4.70666667       0.00000000       0.00000000       0.00027985
2
Properties=species:S:1:pos:R:3:forces:R:3 energy=-0.05438326314819517 pbc="F F F"
Kr       0.00000000       0.00000000       0.00000000       0.00000000       0.00000000       0.00432666
Kr       0.00000000       0.00000000       4.76545455       0.00000000       0.00000000      -0.00432666
2
Properties=species:S:1:pos:R:3:forces:R:3 energy=-0.053987874107399976 pbc="F F F"
Kr       0.00000000       0.00000000       0.00000000       0.00000000       0.00000000       0.00914387
Kr       0.00000000       0.00000000       4.82424242       0.00000000       0.00000000      -0.00914387
2
Properties=species:S:1:pos:R:3:forces:R:3 energy=-0.053309511565985214 pbc="F F F"
Kr       0.00000000       0.00000000       0.00000000       0.00000000       0.00000000       0.01388599
Kr       0.00000000       0.00000000       4.88303030       0.00000000       0.00000000      -0.01388599
2
Properties=species:S:1:pos:R:3:forces:R:3 energy=-0.052366685870349795 pbc="F F F"
Kr       0.00000000       0.00000000       0.00000000       0.00000000       0.00000000       0.01803536
Kr       0.00000000       0.00000000       4.94181818       0.00000000       0.00000000      -0.01803536
2
Properties=species:S:1:pos:R:3:forces:R:3 energy=-0.051213830741703326 pbc="F F F"
Kr       0.00000000       0.00000000       0.00000000       0.00000000       0.00000000       0.02091841
Kr       0.00000000       0.00000000       5.00060606       0.00000000       0.00000000      -0.02091841
2
Properties=species:S:1:pos:R:3:forces:R:3 energy=-0.049944163549064044 pbc="F F F"
Kr       0.00000000       0.00000000       0.00000000       0.00000000       0.00000000       0.02192558
Kr       0.00000000       0.00000000       5.05939394       0.00000000       0.00000000      -0.02192558
2
Properties=species:S:1:pos:R:3:forces:R:3 energy=-0.04867775669523577 pbc="F F F"
Kr       0.00000000       0.00000000       0.00000000       0.00000000       0.00000000       0.02082084
Kr       0.00000000       0.00000000       5.11818182       0.00000000       0.00000000      -0.02082084
2
Properties=species:S:1:pos:R:3:forces:R:3 energy=-0.04752956302320568 pbc="F F F"
Kr       0.00000000       0.00000000       0.00000000       0.00000000       0.00000000       0.01804046
Kr       0.00000000       0.00000000       5.17696970       0.00000000       0.00000000      -0.01804046
2
Properties=species:S:1:pos:R:3:forces:R:3 energy=-0.04656643759544935 pbc="F F F"
Kr       0.00000000       0.00000000       0.00000000       0.00000000       0.00000000       0.01477454
Kr       0.00000000       0.00000000       5.23575758       0.00000000       0.00000000      -0.01477454
2
Properties=species:S:1:pos:R:3:forces:R:3 energy=-0.04577253356084176 pbc="F F F"
Kr       0.00000000       0.00000000       0.00000000       0.00000000       0.00000000       0.01248865
Kr       0.00000000       0.00000000       5.29454545       0.00000000       0.00000000      -0.01248865
2
Properties=species:S:1:pos:R:3:forces:R:3 energy=-0.04507162525106617 pbc="F F F"
Kr       0.00000000       0.00000000       0.00000000       0.00000000       0.00000000       0.01143722
Kr       0.00000000       0.00000000       5.35333333       0.00000000       0.00000000      -0.01143722
2
Properties=species:S:1:pos:R:3:forces:R:3 energy=-0.04445494675341027 pbc="F F F"
Kr       0.00000000       0.00000000       0.00000000       0.00000000       0.00000000       0.00896190
Kr       0.00000000       0.00000000       5.41212121       0.00000000       0.00000000      -0.00896190
2
Properties=species:S:1:pos:R:3:forces:R:3 energy=-0.04410331247043848 pbc="F F F"
Kr       0.00000000       0.00000000       0.00000000       0.00000000       0.00000000       0.00244379
Kr       0.00000000       0.00000000       5.47090909       0.00000000       0.00000000      -0.00244379
2
Properties=species:S:1:pos:R:3:forces:R:3 energy=-0.0441649311261385 pbc="F F F"
Kr       0.00000000       0.00000000       0.00000000       0.00000000       0.00000000      -0.00392169
Kr       0.00000000       0.00000000       5.52969697       0.00000000       0.00000000       0.00392169
2
Properties=species:S:1:pos:R:3:forces:R:3 energy=-0.04446827667679925 pbc="F F F"
Kr       0.00000000       0.00000000       0.00000000       0.00000000       0.00000000      -0.00571980
Kr       0.00000000       0.00000000       5.58848485       0.00000000       0.00000000       0.00571980
2
Properties=species:S:1:pos:R:3:forces:R:3 energy=-0.044807608470701754 pbc="F F F"
Kr       0.00000000       0.00000000       0.00000000       0.00000000       0.00000000      -0.00605085
Kr       0.00000000       0.00000000       5.64727273       0.00000000       0.00000000       0.00605085
2
Properties=species:S:1:pos:R:3:forces:R:3 energy=-0.04524381962796454 pbc="F F F"
Kr       0.00000000       0.00000000       0.00000000       0.00000000       0.00000000      -0.00941746
Kr       0.00000000       0.00000000       5.70606061       0.00000000       0.00000000       0.00941746
2
Properties=species:S:1:pos:R:3:forces:R:3 energy=-0.04594281262209745 pbc="F F F"
Kr       0.00000000       0.00000000       0.00000000       0.00000000       0.00000000      -0.01384365
Kr       0.00000000       0.00000000       5.76484848       0.00000000       0.00000000       0.01384365
2
Properties=species:S:1:pos:R:3:forces:R:3 energy=-0.046750578720843844 pbc="F F F"
Kr       0.00000000       0.00000000       0.00000000       0.00000000       0.00000000      -0.01243122
Kr       0.00000000       0.00000000       5.82363636       0.00000000       0.00000000       0.01243122
2
Properties=species:S:1:pos:R:3:forces:R:3 energy=-0.047298655212852404 pbc="F F F"
Kr       0.00000000       0.00000000       0.00000000       0.00000000       0.00000000      -0.00596389
Kr       0.00000000       0.00000000       5.88242424       0.00000000       0.00000000       0.00596389
2
Properties=species:S:1:pos:R:3:forces:R:3 energy=-0.04746413609656574 pbc="F F F"
Kr       0.00000000       0.00000000       0.00000000       0.00000000       0.00000000      -0.00006579
Kr       0.00000000       0.00000000       5.94121212       0.00000000       0.00000000       0.00006579
2
Properties=species:S:1:pos:R:3:forces:R:3 energy=-0.04738188858353576 pbc="F F F"
Kr       0.00000000       0.00000000       0.00000000       0.00000000       0.00000000       0.00209550
Kr       0.00000000       0.00000000       6.00000000       0.00000000       0.00000000      -0.00209550
