2
Properties=species:S:1:pos:R:3:forces:R:3 energy=10385.174101812421 pbc="F F F"
La       0.00000000       0.00000000       0.00000000       0.00000000       0.00000000 -175973.32812500
La       0.00000000       0.00000000       0.18000000       0.00000000       0.00000000  175973.32812500
2
Properties=species:S:1:pos:R:3:forces:R:3 energy=4169.16970728117 pbc="F F F"
La       0.00000000       0.00000000       0.00000000       0.00000000       0.00000000  -59734.07421875
La       0.00000000       0.00000000       0.23878788       0.00000000       0.00000000   59734.07421875
2
Properties=species:S:1:pos:R:3:forces:R:3 energy=1893.6377248592953 pbc="F F F"
La       0.00000000       0.00000000       0.00000000       0.00000000       0.00000000  -23885.62109375
La       0.00000000       0.00000000       0.29757576       0.00000000       0.00000000   23885.62109375
2
Properties=species:S:1:pos:R:3:forces:R:3 energy=939.910613042889 pbc="F F F"
La       0.00000000       0.00000000       0.00000000       0.00000000       0.00000000  -10571.40625000
La       0.00000000       0.00000000       0.35636364       0.00000000       0.00000000   10571.40625000
2
Properties=species:S:1:pos:R:3:forces:R:3 energy=503.81283472257655 pbc="F F F"
La       0.00000000       0.00000000       0.00000000       0.00000000       0.00000000   -5022.72705078
La       0.00000000       0.00000000       0.41515152       0.00000000       0.00000000    5022.72705078
2
Properties=species:S:1:pos:R:3:forces:R:3 energy=291.2464284789122 pbc="F F F"
La       0.00000000       0.00000000       0.00000000       0.00000000       0.00000000   -2524.06787109
La       0.00000000       0.00000000       0.47393939       0.00000000       0.00000000    2524.06787109
2
Properties=species:S:1:pos:R:3:forces:R:3 energy=182.0498342469666 pbc="F F F"
La       0.00000000       0.00000000       0.00000000       0.00000000       0.00000000   -1331.27661133
La       0.00000000       0.00000000       0.53272727       0.00000000       0.00000000    1331.27661133
2
Properties=species:S:1:pos:R:3:forces:R:3 energy=123.29544735778244 pbc="F F F"
La       0.00000000       0.00000000       0.00000000       0.00000000       0.00000000    -733.57879639
La       0.00000000       0.00000000       0.59151515       0.00000000       0.00000000     733.57879639
2
Properties=species:S:1:pos:R:3:forces:R:3 energy=90.31029418488284 pbc="F F F"
La       0.00000000       0.00000000       0.00000000       0.00000000       0.00000000    -421.07742310
La       0.00000000       0.00000000       0.65030303       0.00000000       0.00000000     421.07742310
2
Properties=species:S:1:pos:R:3:forces:R:3 energy=71.03101260035011 pbc="F F F"
La       0.00000000       0.00000000       0.00000000       0.00000000       0.00000000    -251.49563599
La       0.00000000       0.00000000       0.70909091       0.00000000       0.00000000     251.49563599
2
Properties=species:S:1:pos:R:3:forces:R:3 energy=59.29786598989044 pbc="F F F"
La       0.00000000       0.00000000       0.00000000       0.00000000       0.00000000    -156.59492493
La       0.00000000       0.00000000       0.76787879       0.00000000       0.00000000     156.59492493
2
Properties=species:S:1:pos:R:3:forces:R:3 energy=51.83361740869161 pbc="F F F"
La       0.00000000       0.00000000       0.00000000       0.00000000       0.00000000    -102.29986572
La       0.00000000       0.00000000       0.82666667       0.00000000       0.00000000     102.29986572
2
Properties=species:S:1:pos:R:3:forces:R:3 energy=46.825850799100394 pbc="F F F"
La       0.00000000       0.00000000       0.00000000       0.00000000       0.00000000     -70.92007446
La       0.00000000       0.00000000       0.88545455       0.00000000       0.00000000      70.92007446
2
Properties=species:S:1:pos:R:3:forces:R:3 energy=43.2348818654625 pbc="F F F"
La       0.00000000       0.00000000       0.00000000       0.00000000       0.00000000     -52.95671082
La       0.00000000       0.00000000       0.94424242       0.00000000       0.00000000      52.95671082
2
Properties=species:S:1:pos:R:3:forces:R:3 energy=40.43937656352841 pbc="F F F"
La       0.00000000       0.00000000       0.00000000       0.00000000       0.00000000     -43.24002457
La       0.00000000       0.00000000       1.00303030       0.00000000       0.00000000      43.24002457
2
Properties=species:S:1:pos:R:3:forces:R:3 energy=38.043334991186505 pbc="F F F"
La       0.00000000       0.00000000       0.00000000       0.00000000       0.00000000     -39.06157303
La       0.00000000       0.00000000       1.06181818       0.00000000       0.00000000      39.06157303
2
Properties=species:S:1:pos:R:3:forces:R:3 energy=35.76342052803942 pbc="F F F"
La       0.00000000       0.00000000       0.00000000       0.00000000       0.00000000     -39.14971542
La       0.00000000       0.00000000       1.12060606       0.00000000       0.00000000      39.14971542
2
Properties=species:S:1:pos:R:3:forces:R:3 energy=33.37173554905112 pbc="F F F"
La       0.00000000       0.00000000       0.00000000       0.00000000       0.00000000     -42.71069717
La       0.00000000       0.00000000       1.17939394       0.00000000       0.00000000      42.71069717
2
Properties=species:S:1:pos:R:3:forces:R:3 energy=30.69978872871008 pbc="F F F"
La       0.00000000       0.00000000       0.00000000       0.00000000       0.00000000     -48.39195251
La       0.00000000       0.00000000       1.23818182       0.00000000       0.00000000      48.39195251
2
Properties=species:S:1:pos:R:3:forces:R:3 energy=27.672993230408387 pbc="F F F"
La       0.00000000       0.00000000       0.00000000       0.00000000       0.00000000     -54.56782532
La       0.00000000       0.00000000       1.29696970       0.00000000       0.00000000      54.56782532
2
Properties=species:S:1:pos:R:3:forces:R:3 energy=24.294662156735104 pbc="F F F"
La       0.00000000       0.00000000       0.00000000       0.00000000       0.00000000     -60.16274643
La       0.00000000       0.00000000       1.35575758       0.00000000       0.00000000      60.16274643
2
Properties=species:S:1:pos:R:3:forces:R:3 energy=20.646079127711324 pbc="F F F"
La       0.00000000       0.00000000       0.00000000       0.00000000       0.00000000     -63.33934402
La       0.00000000       0.00000000       1.41454545       0.00000000       0.00000000      63.33934402
2
Properties=species:S:1:pos:R:3:forces:R:3 energy=16.941820915213608 pbc="F F F"
La       0.00000000       0.00000000       0.00000000       0.00000000       0.00000000     -61.81066513
La       0.00000000       0.00000000       1.47333333       0.00000000       0.00000000      61.81066513
2
Properties=species:S:1:pos:R:3:forces:R:3 energy=13.465095463298688 pbc="F F F"
La       0.00000000       0.00000000       0.00000000       0.00000000       0.00000000     -55.97492599
La       0.00000000       0.00000000       1.53212121       0.00000000       0.00000000      55.97492599
2
Properties=species:S:1:pos:R:3:forces:R:3 energy=10.386823232674866 pbc="F F F"
La       0.00000000       0.00000000       0.00000000       0.00000000       0.00000000     -48.73518372
La       0.00000000       0.00000000       1.59090909       0.00000000       0.00000000      48.73518372
2
Properties=species:S:1:pos:R:3:forces:R:3 energy=7.7276899721298795 pbc="F F F"
La       0.00000000       0.00000000       0.00000000       0.00000000       0.00000000     -41.79500580
La       0.00000000       0.00000000       1.64969697       0.00000000       0.00000000      41.79500580
2
Properties=species:S:1:pos:R:3:forces:R:3 energy=5.470355574433405 pbc="F F F"
La       0.00000000       0.00000000       0.00000000       0.00000000       0.00000000     -34.98838043
La       0.00000000       0.00000000       1.70848485       0.00000000       0.00000000      34.98838043
2
Properties=species:S:1:pos:R:3:forces:R:3 energy=3.6122395235981353 pbc="F F F"
La       0.00000000       0.00000000       0.00000000       0.00000000       0.00000000     -28.31551170
La       0.00000000       0.00000000       1.76727273       0.00000000       0.00000000      28.31551170
2
Properties=species:S:1:pos:R:3:forces:R:3 energy=2.117915768491545 pbc="F F F"
La       0.00000000       0.00000000       0.00000000       0.00000000       0.00000000     -22.80351639
La       0.00000000       0.00000000       1.82606061       0.00000000       0.00000000      22.80351639
2
Properties=species:S:1:pos:R:3:forces:R:3 energy=0.8977830699903987 pbc="F F F"
La       0.00000000       0.00000000       0.00000000       0.00000000       0.00000000     -18.94344902
La       0.00000000       0.00000000       1.88484848       0.00000000       0.00000000      18.94344902
2
Properties=species:S:1:pos:R:3:forces:R:3 energy=-0.12903312032955136 pbc="F F F"
La       0.00000000       0.00000000       0.00000000       0.00000000       0.00000000     -16.09560585
La       0.00000000       0.00000000       1.94363636       0.00000000       0.00000000      16.09560585
2
Properties=species:S:1:pos:R:3:forces:R:3 energy=-1.002875922348487 pbc="F F F"
La       0.00000000       0.00000000       0.00000000       0.00000000       0.00000000     -13.68188190
La       0.00000000       0.00000000       2.00242424       0.00000000       0.00000000      13.68188190
2
Properties=species:S:1:pos:R:3:forces:R:3 energy=-1.7428845613979707 pbc="F F F"
La       0.00000000       0.00000000       0.00000000       0.00000000       0.00000000     -11.54000759
La       0.00000000       0.00000000       2.06121212       0.00000000       0.00000000      11.54000759
2
Properties=species:S:1:pos:R:3:forces:R:3 energy=-2.365829235605254 pbc="F F F"
La       0.00000000       0.00000000       0.00000000       0.00000000       0.00000000      -9.70947075
La       0.00000000       0.00000000       2.12000000       0.00000000       0.00000000       9.70947075
2
Properties=species:S:1:pos:R:3:forces:R:3 energy=-2.890938456891821 pbc="F F F"
La       0.00000000       0.00000000       0.00000000       0.00000000       0.00000000      -8.20346260
La       0.00000000       0.00000000       2.17878788       0.00000000       0.00000000       8.20346260
2
Properties=species:S:1:pos:R:3:forces:R:3 energy=-3.33468287578286 pbc="F F F"
La       0.00000000       0.00000000       0.00000000       0.00000000       0.00000000      -6.91654539
La       0.00000000       0.00000000       2.23757576       0.00000000       0.00000000       6.91654539
2
Properties=species:S:1:pos:R:3:forces:R:3 energy=-3.705536261710585 pbc="F F F"
La       0.00000000       0.00000000       0.00000000       0.00000000       0.00000000      -5.70303392
La       0.00000000       0.00000000       2.29636364       0.00000000       0.00000000       5.70303392
2
Properties=species:S:1:pos:R:3:forces:R:3 energy=-4.005118497857596 pbc="F F F"
La       0.00000000       0.00000000       0.00000000       0.00000000       0.00000000      -4.48754835
La       0.00000000       0.00000000       2.35515152       0.00000000       0.00000000       4.48754835
2
Properties=species:S:1:pos:R:3:forces:R:3 energy=-4.233383548095289 pbc="F F F"
La       0.00000000       0.00000000       0.00000000       0.00000000       0.00000000      -3.28470850
La       0.00000000       0.00000000       2.41393939       0.00000000       0.00000000       3.28470850
2
Properties=species:S:1:pos:R:3:forces:R:3 energy=-4.392742092019278 pbc="F F F"
La       0.00000000       0.00000000       0.00000000       0.00000000       0.00000000      -2.15435076
La       0.00000000       0.00000000       2.47272727       0.00000000       0.00000000       2.15435076
2
Properties=species:S:1:pos:R:3:forces:R:3 energy=-4.489309897300855 pbc="F F F"
La       0.00000000       0.00000000       0.00000000       0.00000000       0.00000000      -1.15726006
La       0.00000000       0.00000000       2.53151515       0.00000000       0.00000000       1.15726006
2
Properties=species:S:1:pos:R:3:forces:R:3 energy=-4.5321975097193175 pbc="F F F"
La       0.00000000       0.00000000       0.00000000       0.00000000       0.00000000      -0.33223751
La       0.00000000       0.00000000       2.59030303       0.00000000       0.00000000       0.33223751
2
Properties=species:S:1:pos:R:3:forces:R:3 energy=-4.53199766233969 pbc="F F F"
La       0.00000000       0.00000000       0.00000000       0.00000000       0.00000000       0.30852842
La       0.00000000       0.00000000       2.64909091       0.00000000       0.00000000      -0.30852842
2
Properties=species:S:1:pos:R:3:forces:R:3 energy=-4.49937506363148 pbc="F F F"
La       0.00000000       0.00000000       0.00000000       0.00000000       0.00000000       0.77340329
La       0.00000000       0.00000000       2.70787879       0.00000000       0.00000000      -0.77340329
2
Properties=species:S:1:pos:R:3:forces:R:3 energy=-4.4441147952276445 pbc="F F F"
La       0.00000000       0.00000000       0.00000000       0.00000000       0.00000000       1.08273351
La       0.00000000       0.00000000       2.76666667       0.00000000       0.00000000      -1.08273351
2
Properties=species:S:1:pos:R:3:forces:R:3 energy=-4.374602374024634 pbc="F F F"
La       0.00000000       0.00000000       0.00000000       0.00000000       0.00000000       1.26309621
La       0.00000000       0.00000000       2.82545455       0.00000000       0.00000000      -1.26309621
2
Properties=species:S:1:pos:R:3:forces:R:3 energy=-4.29753619236958 pbc="F F F"
La       0.00000000       0.00000000       0.00000000       0.00000000       0.00000000       1.34504783
La       0.00000000       0.00000000       2.88424242       0.00000000       0.00000000      -1.34504783
2
Properties=species:S:1:pos:R:3:forces:R:3 energy=-4.21773063967092 pbc="F F F"
La       0.00000000       0.00000000       0.00000000       0.00000000       0.00000000       1.36199582
La       0.00000000       0.00000000       2.94303030       0.00000000       0.00000000      -1.36199582
2
Properties=species:S:1:pos:R:3:forces:R:3 energy=-4.138010133515656 pbc="F F F"
La       0.00000000       0.00000000       0.00000000       0.00000000       0.00000000       1.34756434
La       0.00000000       0.00000000       3.00181818       0.00000000       0.00000000      -1.34756434
2
Properties=species:S:1:pos:R:3:forces:R:3 energy=-4.059328479350524 pbc="F F F"
La       0.00000000       0.00000000       0.00000000       0.00000000       0.00000000       1.33085883
La       0.00000000       0.00000000       3.06060606       0.00000000       0.00000000      -1.33085883
2
Properties=species:S:1:pos:R:3:forces:R:3 energy=-3.981192575655327 pbc="F F F"
La       0.00000000       0.00000000       0.00000000       0.00000000       0.00000000       1.33112299
La       0.00000000       0.00000000       3.11939394       0.00000000       0.00000000      -1.33112299
2
Properties=species:S:1:pos:R:3:forces:R:3 energy=-3.9023693303738427 pbc="F F F"
La       0.00000000       0.00000000       0.00000000       0.00000000       0.00000000       1.35392916
La       0.00000000       0.00000000       3.17818182       0.00000000       0.00000000      -1.35392916
2
Properties=species:S:1:pos:R:3:forces:R:3 energy=-3.8217176510723347 pbc="F F F"
La       0.00000000       0.00000000       0.00000000       0.00000000       0.00000000       1.39104652
La       0.00000000       0.00000000       3.23696970       0.00000000       0.00000000      -1.39104652
2
Properties=species:S:1:pos:R:3:forces:R:3 energy=-3.7388737973365282 pbc="F F F"
La       0.00000000       0.00000000       0.00000000       0.00000000       0.00000000       1.42523563
La       0.00000000       0.00000000       3.29575758       0.00000000       0.00000000      -1.42523563
2
Properties=species:S:1:pos:R:3:forces:R:3 energy=-3.6545501179397566 pbc="F F F"
La       0.00000000       0.00000000       0.00000000       0.00000000       0.00000000       1.43896365
La       0.00000000       0.00000000       3.35454545       0.00000000       0.00000000      -1.43896365
2
Properties=species:S:1:pos:R:3:forces:R:3 energy=-3.570277570809421 pbc="F F F"
La       0.00000000       0.00000000       0.00000000       0.00000000       0.00000000       1.42292047
La       0.00000000       0.00000000       3.41333333       0.00000000       0.00000000      -1.42292047
2
Properties=species:S:1:pos:R:3:forces:R:3 energy=-3.4877878951498578 pbc="F F F"
La       0.00000000       0.00000000       0.00000000       0.00000000       0.00000000       1.37970686
La       0.00000000       0.00000000       3.47212121       0.00000000       0.00000000      -1.37970686
2
Properties=species:S:1:pos:R:3:forces:R:3 energy=-3.408359138779651 pbc="F F F"
La       0.00000000       0.00000000       0.00000000       0.00000000       0.00000000       1.32122731
La       0.00000000       0.00000000       3.53090909       0.00000000       0.00000000      -1.32122731
2
Properties=species:S:1:pos:R:3:forces:R:3 energy=-3.3324474861197007 pbc="F F F"
La       0.00000000       0.00000000       0.00000000       0.00000000       0.00000000       1.26243293
La       0.00000000       0.00000000       3.58969697       0.00000000       0.00000000      -1.26243293
2
Properties=species:S:1:pos:R:3:forces:R:3 energy=-3.2596884437871334 pbc="F F F"
La       0.00000000       0.00000000       0.00000000       0.00000000       0.00000000       1.21564531
La       0.00000000       0.00000000       3.64848485       0.00000000       0.00000000      -1.21564531
2
Properties=species:S:1:pos:R:3:forces:R:3 energy=-3.189140534997273 pbc="F F F"
La       0.00000000       0.00000000       0.00000000       0.00000000       0.00000000       1.18797064
La       0.00000000       0.00000000       3.70727273       0.00000000       0.00000000      -1.18797064
2
Properties=species:S:1:pos:R:3:forces:R:3 energy=-3.1195864888991864 pbc="F F F"
La       0.00000000       0.00000000       0.00000000       0.00000000       0.00000000       1.18187690
La       0.00000000       0.00000000       3.76606061       0.00000000       0.00000000      -1.18187690
2
Properties=species:S:1:pos:R:3:forces:R:3 energy=-3.049768921085373 pbc="F F F"
La       0.00000000       0.00000000       0.00000000       0.00000000       0.00000000       1.19661701
La       0.00000000       0.00000000       3.82484848       0.00000000       0.00000000      -1.19661701
2
Properties=species:S:1:pos:R:3:forces:R:3 energy=-2.9785687113257326 pbc="F F F"
La       0.00000000       0.00000000       0.00000000       0.00000000       0.00000000       1.22770154
La       0.00000000       0.00000000       3.88363636       0.00000000       0.00000000      -1.22770154
2
Properties=species:S:1:pos:R:3:forces:R:3 energy=-2.905296862400831 pbc="F F F"
La       0.00000000       0.00000000       0.00000000       0.00000000       0.00000000       1.26496518
La       0.00000000       0.00000000       3.94242424       0.00000000       0.00000000      -1.26496518
2
Properties=species:S:1:pos:R:3:forces:R:3 energy=-2.830002955427231 pbc="F F F"
La       0.00000000       0.00000000       0.00000000       0.00000000       0.00000000       1.29404569
La       0.00000000       0.00000000       4.00121212       0.00000000       0.00000000      -1.29404569
2
Properties=species:S:1:pos:R:3:forces:R:3 energy=-2.753554441353591 pbc="F F F"
La       0.00000000       0.00000000       0.00000000       0.00000000       0.00000000       1.30271316
La       0.00000000       0.00000000       4.06000000       0.00000000       0.00000000      -1.30271316
2
Properties=species:S:1:pos:R:3:forces:R:3 energy=-2.67733730828633 pbc="F F F"
La       0.00000000       0.00000000       0.00000000       0.00000000       0.00000000       1.28604460
La       0.00000000       0.00000000       4.11878788       0.00000000       0.00000000      -1.28604460
2
Properties=species:S:1:pos:R:3:forces:R:3 energy=-2.602803316540834 pbc="F F F"
La       0.00000000       0.00000000       0.00000000       0.00000000       0.00000000       1.24617052
La       0.00000000       0.00000000       4.17757576       0.00000000       0.00000000      -1.24617052
2
Properties=species:S:1:pos:R:3:forces:R:3 energy=-2.531154282408677 pbc="F F F"
La       0.00000000       0.00000000       0.00000000       0.00000000       0.00000000       1.18909132
La       0.00000000       0.00000000       4.23636364       0.00000000       0.00000000      -1.18909132
2
Properties=species:S:1:pos:R:3:forces:R:3 energy=-2.463191351119241 pbc="F F F"
La       0.00000000       0.00000000       0.00000000       0.00000000       0.00000000       1.12191665
La       0.00000000       0.00000000       4.29515152       0.00000000       0.00000000      -1.12191665
2
Properties=species:S:1:pos:R:3:forces:R:3 energy=-2.3993074513813766 pbc="F F F"
La       0.00000000       0.00000000       0.00000000       0.00000000       0.00000000       1.05153239
La       0.00000000       0.00000000       4.35393939       0.00000000       0.00000000      -1.05153239
2
Properties=species:S:1:pos:R:3:forces:R:3 energy=-2.339500473014814 pbc="F F F"
La       0.00000000       0.00000000       0.00000000       0.00000000       0.00000000       0.98407733
La       0.00000000       0.00000000       4.41272727       0.00000000       0.00000000      -0.98407733
2
Properties=species:S:1:pos:R:3:forces:R:3 energy=-2.2834432061205603 pbc="F F F"
La       0.00000000       0.00000000       0.00000000       0.00000000       0.00000000       0.92471683
La       0.00000000       0.00000000       4.47151515       0.00000000       0.00000000      -0.92471683
2
Properties=species:S:1:pos:R:3:forces:R:3 energy=-2.230538870020859 pbc="F F F"
La       0.00000000       0.00000000       0.00000000       0.00000000       0.00000000       0.87734938
La       0.00000000       0.00000000       4.53030303       0.00000000       0.00000000      -0.87734938
2
Properties=species:S:1:pos:R:3:forces:R:3 energy=-2.180008182758648 pbc="F F F"
La       0.00000000       0.00000000       0.00000000       0.00000000       0.00000000       0.84423363
La       0.00000000       0.00000000       4.58909091       0.00000000       0.00000000      -0.84423363
2
Properties=species:S:1:pos:R:3:forces:R:3 energy=-2.130993337292994 pbc="F F F"
La       0.00000000       0.00000000       0.00000000       0.00000000       0.00000000       0.82562232
La       0.00000000       0.00000000       4.64787879       0.00000000       0.00000000      -0.82562232
2
Properties=species:S:1:pos:R:3:forces:R:3 energy=-2.0826887632584583 pbc="F F F"
La       0.00000000       0.00000000       0.00000000       0.00000000       0.00000000       0.81946754
La       0.00000000       0.00000000       4.70666667       0.00000000       0.00000000      -0.81946754
2
Properties=species:S:1:pos:R:3:forces:R:3 energy=-2.0344826612379694 pbc="F F F"
La       0.00000000       0.00000000       0.00000000       0.00000000       0.00000000       0.82148343
La       0.00000000       0.00000000       4.76545455       0.00000000       0.00000000      -0.82148343
2
Properties=species:S:1:pos:R:3:forces:R:3 energy=-1.9860560145014006 pbc="F F F"
La       0.00000000       0.00000000       0.00000000       0.00000000       0.00000000       0.82576358
La       0.00000000       0.00000000       4.82424242       0.00000000       0.00000000      -0.82576358
2
Properties=species:S:1:pos:R:3:forces:R:3 energy=-1.937472578179941 pbc="F F F"
La       0.00000000       0.00000000       0.00000000       0.00000000       0.00000000       0.82613564
La       0.00000000       0.00000000       4.88303030       0.00000000       0.00000000      -0.82613564
2
Properties=species:S:1:pos:R:3:forces:R:3 energy=-1.8890921582597442 pbc="F F F"
La       0.00000000       0.00000000       0.00000000       0.00000000       0.00000000       0.81803799
La       0.00000000       0.00000000       4.94181818       0.00000000       0.00000000      -0.81803799
2
Properties=species:S:1:pos:R:3:forces:R:3 energy=-1.8414821087718805 pbc="F F F"
La       0.00000000       0.00000000       0.00000000       0.00000000       0.00000000       0.80020982
La       0.00000000       0.00000000       5.00060606       0.00000000       0.00000000      -0.80020982
2
Properties=species:S:1:pos:R:3:forces:R:3 energy=-1.7951504867174268 pbc="F F F"
La       0.00000000       0.00000000       0.00000000       0.00000000       0.00000000       0.77502757
La       0.00000000       0.00000000       5.05939394       0.00000000       0.00000000      -0.77502757
2
Properties=species:S:1:pos:R:3:forces:R:3 energy=-1.7504201140366433 pbc="F F F"
La       0.00000000       0.00000000       0.00000000       0.00000000       0.00000000       0.74655062
La       0.00000000       0.00000000       5.11818182       0.00000000       0.00000000      -0.74655062
2
Properties=species:S:1:pos:R:3:forces:R:3 energy=-1.7074093492353932 pbc="F F F"
La       0.00000000       0.00000000       0.00000000       0.00000000       0.00000000       0.71617115
La       0.00000000       0.00000000       5.17696970       0.00000000       0.00000000      -0.71617115
2
Properties=species:S:1:pos:R:3:forces:R:3 energy=-1.6663529112615467 pbc="F F F"
La       0.00000000       0.00000000       0.00000000       0.00000000       0.00000000       0.67868733
La       0.00000000       0.00000000       5.23575758       0.00000000       0.00000000      -0.67868733
2
Properties=species:S:1:pos:R:3:forces:R:3 energy=-1.6279241315569526 pbc="F F F"
La       0.00000000       0.00000000       0.00000000       0.00000000       0.00000000       0.62583846
La       0.00000000       0.00000000       5.29454545       0.00000000       0.00000000      -0.62583846
2
Properties=species:S:1:pos:R:3:forces:R:3 energy=-1.5929421403643413 pbc="F F F"
La       0.00000000       0.00000000       0.00000000       0.00000000       0.00000000       0.56540358
La       0.00000000       0.00000000       5.35333333       0.00000000       0.00000000      -0.56540358
2
Properties=species:S:1:pos:R:3:forces:R:3 energy=-1.5608538037810773 pbc="F F F"
La       0.00000000       0.00000000       0.00000000       0.00000000       0.00000000       0.53467184
La       0.00000000       0.00000000       5.41212121       0.00000000       0.00000000      -0.53467184
2
Properties=species:S:1:pos:R:3:forces:R:3 energy=-1.5291615750221634 pbc="F F F"
La       0.00000000       0.00000000       0.00000000       0.00000000       0.00000000       0.54712236
La       0.00000000       0.00000000       5.47090909       0.00000000       0.00000000      -0.54712236
2
Properties=species:S:1:pos:R:3:forces:R:3 energy=-1.4968903959997548 pbc="F F F"
La       0.00000000       0.00000000       0.00000000       0.00000000       0.00000000       0.54201329
La       0.00000000       0.00000000       5.52969697       0.00000000       0.00000000      -0.54201329
2
Properties=species:S:1:pos:R:3:forces:R:3 energy=-1.466498125222614 pbc="F F F"
La       0.00000000       0.00000000       0.00000000       0.00000000       0.00000000       0.48619369
La       0.00000000       0.00000000       5.58848485       0.00000000       0.00000000      -0.48619369
2
Properties=species:S:1:pos:R:3:forces:R:3 energy=-1.4396684784090652 pbc="F F F"
La       0.00000000       0.00000000       0.00000000       0.00000000       0.00000000       0.43472803
La       0.00000000       0.00000000       5.64727273       0.00000000       0.00000000      -0.43472803
2
Properties=species:S:1:pos:R:3:forces:R:3 energy=-1.4139373917534668 pbc="F F F"
La       0.00000000       0.00000000       0.00000000       0.00000000       0.00000000       0.45330369
La       0.00000000       0.00000000       5.70606061       0.00000000       0.00000000      -0.45330369
2
Properties=species:S:1:pos:R:3:forces:R:3 energy=-1.3856803445338615 pbc="F F F"
La       0.00000000       0.00000000       0.00000000       0.00000000       0.00000000       0.49964249
La       0.00000000       0.00000000       5.76484848       0.00000000       0.00000000      -0.49964249
2
Properties=species:S:1:pos:R:3:forces:R:3 energy=-1.3572696773530104 pbc="F F F"
La       0.00000000       0.00000000       0.00000000       0.00000000       0.00000000       0.44360191
La       0.00000000       0.00000000       5.82363636       0.00000000       0.00000000      -0.44360191
2
Properties=species:S:1:pos:R:3:forces:R:3 energy=-1.3359439023623878 pbc="F F F"
La       0.00000000       0.00000000       0.00000000       0.00000000       0.00000000       0.27356562
La       0.00000000       0.00000000       5.88242424       0.00000000       0.00000000      -0.27356562
2
Properties=species:S:1:pos:R:3:forces:R:3 energy=-1.3250617525113921 pbc="F F F"
La       0.00000000       0.00000000       0.00000000       0.00000000       0.00000000       0.10572688
La       0.00000000       0.00000000       5.94121212       0.00000000       0.00000000      -0.10572688
2
Properties=species:S:1:pos:R:3:forces:R:3 energy=-1.3214630986167903 pbc="F F F"
La       0.00000000       0.00000000       0.00000000       0.00000000       0.00000000       0.03887901
La       0.00000000       0.00000000       6.00000000       0.00000000       0.00000000      -0.03887901
