2
Properties=species:S:1:pos:R:3:forces:R:3 energy=121.55740366754571 pbc="F F F"
Li       0.00000000       0.00000000       0.00000000       0.00000000       0.00000000   -1432.57141113
Li       0.00000000       0.00000000       0.18000000       0.00000000       0.00000000    1432.57141113
2
Properties=species:S:1:pos:R:3:forces:R:3 energy=65.06096659479181 pbc="F F F"
Li       0.00000000       0.00000000       0.00000000       0.00000000       0.00000000    -625.73577881
Li       0.00000000       0.00000000       0.23878788       0.00000000       0.00000000     625.73577881
2
Properties=species:S:1:pos:R:3:forces:R:3 energy=38.80423365411797 pbc="F F F"
Li       0.00000000       0.00000000       0.00000000       0.00000000       0.00000000    -311.57006836
Li       0.00000000       0.00000000       0.29757576       0.00000000       0.00000000     311.57006836
2
Properties=species:S:1:pos:R:3:forces:R:3 energy=25.16690836883665 pbc="F F F"
Li       0.00000000       0.00000000       0.00000000       0.00000000       0.00000000    -169.59049988
Li       0.00000000       0.00000000       0.35636364       0.00000000       0.00000000     169.59049988
2
Properties=species:S:1:pos:R:3:forces:R:3 energy=17.509649386161627 pbc="F F F"
Li       0.00000000       0.00000000       0.00000000       0.00000000       0.00000000     -98.53793335
Li       0.00000000       0.00000000       0.41515152       0.00000000       0.00000000      98.53793335
2
Properties=species:S:1:pos:R:3:forces:R:3 energy=12.952313540504523 pbc="F F F"
Li       0.00000000       0.00000000       0.00000000       0.00000000       0.00000000     -60.23144531
Li       0.00000000       0.00000000       0.47393939       0.00000000       0.00000000      60.23144531
2
Properties=species:S:1:pos:R:3:forces:R:3 energy=10.106979501720172 pbc="F F F"
Li       0.00000000       0.00000000       0.00000000       0.00000000       0.00000000     -38.56666565
Li       0.00000000       0.00000000       0.53272727       0.00000000       0.00000000      38.56666565
2
Properties=species:S:1:pos:R:3:forces:R:3 energy=8.237737812585209 pbc="F F F"
Li       0.00000000       0.00000000       0.00000000       0.00000000       0.00000000     -26.20635223
Li       0.00000000       0.00000000       0.59151515       0.00000000       0.00000000      26.20635223
2
Properties=species:S:1:pos:R:3:forces:R:3 energy=6.9143755064708525 pbc="F F F"
Li       0.00000000       0.00000000       0.00000000       0.00000000       0.00000000     -19.58464813
Li       0.00000000       0.00000000       0.65030303       0.00000000       0.00000000      19.58464813
2
Properties=species:S:1:pos:R:3:forces:R:3 energy=5.857968601370459 pbc="F F F"
Li       0.00000000       0.00000000       0.00000000       0.00000000       0.00000000     -16.93115425
Li       0.00000000       0.00000000       0.70909091       0.00000000       0.00000000      16.93115425
2
Properties=species:S:1:pos:R:3:forces:R:3 energy=4.863089936987691 pbc="F F F"
Li       0.00000000       0.00000000       0.00000000       0.00000000       0.00000000     -17.32110023
Li       0.00000000       0.00000000       0.76787879       0.00000000       0.00000000      17.32110023
2
Properties=species:S:1:pos:R:3:forces:R:3 energy=3.8072300480550445 pbc="F F F"
Li       0.00000000       0.00000000       0.00000000       0.00000000       0.00000000     -18.40087128
Li       0.00000000       0.00000000       0.82666667       0.00000000       0.00000000      18.40087128
2
Properties=species:S:1:pos:R:3:forces:R:3 energy=2.733101880444074 pbc="F F F"
Li       0.00000000       0.00000000       0.00000000       0.00000000       0.00000000     -17.90279007
Li       0.00000000       0.00000000       0.88545455       0.00000000       0.00000000      17.90279007
2
Properties=species:S:1:pos:R:3:forces:R:3 energy=1.7264968025727248 pbc="F F F"
Li       0.00000000       0.00000000       0.00000000       0.00000000       0.00000000     -16.13570786
Li       0.00000000       0.00000000       0.94424242       0.00000000       0.00000000      16.13570786
2
Properties=species:S:1:pos:R:3:forces:R:3 energy=0.8597720834582375 pbc="F F F"
Li       0.00000000       0.00000000       0.00000000       0.00000000       0.00000000     -13.15838337
Li       0.00000000       0.00000000       1.00303030       0.00000000       0.00000000      13.15838337
2
Properties=species:S:1:pos:R:3:forces:R:3 energy=0.20430264479948812 pbc="F F F"
Li       0.00000000       0.00000000       0.00000000       0.00000000       0.00000000      -8.90070152
Li       0.00000000       0.00000000       1.06181818       0.00000000       0.00000000       8.90070152
2
Properties=species:S:1:pos:R:3:forces:R:3 energy=-0.1722642237152894 pbc="F F F"
Li       0.00000000       0.00000000       0.00000000       0.00000000       0.00000000      -4.06497526
Li       0.00000000       0.00000000       1.12060606       0.00000000       0.00000000       4.06497526
2
Properties=species:S:1:pos:R:3:forces:R:3 energy=-0.3184077633852148 pbc="F F F"
Li       0.00000000       0.00000000       0.00000000       0.00000000       0.00000000      -1.31249821
Li       0.00000000       0.00000000       1.17939394       0.00000000       0.00000000       1.31249821
2
Properties=species:S:1:pos:R:3:forces:R:3 energy=-0.36063636015323164 pbc="F F F"
Li       0.00000000       0.00000000       0.00000000       0.00000000       0.00000000      -0.31594557
Li       0.00000000       0.00000000       1.23818182       0.00000000       0.00000000       0.31594557
2
Properties=species:S:1:pos:R:3:forces:R:3 energy=-0.37015988799695754 pbc="F F F"
Li       0.00000000       0.00000000       0.00000000       0.00000000       0.00000000      -0.06912022
Li       0.00000000       0.00000000       1.29696970       0.00000000       0.00000000       0.06912022
2
Properties=species:S:1:pos:R:3:forces:R:3 energy=-0.37057473172454375 pbc="F F F"
Li       0.00000000       0.00000000       0.00000000       0.00000000       0.00000000       0.05919728
Li       0.00000000       0.00000000       1.35575758       0.00000000       0.00000000      -0.05919728
2
Properties=species:S:1:pos:R:3:forces:R:3 energy=-0.36467679533482783 pbc="F F F"
Li       0.00000000       0.00000000       0.00000000       0.00000000       0.00000000       0.10388550
Li       0.00000000       0.00000000       1.41454545       0.00000000       0.00000000      -0.10388550
2
Properties=species:S:1:pos:R:3:forces:R:3 energy=-0.36418514152219233 pbc="F F F"
Li       0.00000000       0.00000000       0.00000000       0.00000000       0.00000000      -0.13314036
Li       0.00000000       0.00000000       1.47333333       0.00000000       0.00000000       0.13314036
2
Properties=species:S:1:pos:R:3:forces:R:3 energy=-0.3835454347849815 pbc="F F F"
Li       0.00000000       0.00000000       0.00000000       0.00000000       0.00000000      -0.53238863
Li       0.00000000       0.00000000       1.53212121       0.00000000       0.00000000       0.53238863
2
Properties=species:S:1:pos:R:3:forces:R:3 energy=-0.4259485252499828 pbc="F F F"
Li       0.00000000       0.00000000       0.00000000       0.00000000       0.00000000      -0.89628953
Li       0.00000000       0.00000000       1.59090909       0.00000000       0.00000000       0.89628953
2
Properties=species:S:1:pos:R:3:forces:R:3 energy=-0.4875122699521568 pbc="F F F"
Li       0.00000000       0.00000000       0.00000000       0.00000000       0.00000000      -1.19088209
Li       0.00000000       0.00000000       1.64969697       0.00000000       0.00000000       1.19088209
2
Properties=species:S:1:pos:R:3:forces:R:3 energy=-0.5656523948916931 pbc="F F F"
Li       0.00000000       0.00000000       0.00000000       0.00000000       0.00000000      -1.46708536
Li       0.00000000       0.00000000       1.70848485       0.00000000       0.00000000       1.46708536
2
Properties=species:S:1:pos:R:3:forces:R:3 energy=-0.6597432721259902 pbc="F F F"
Li       0.00000000       0.00000000       0.00000000       0.00000000       0.00000000      -1.72798550
Li       0.00000000       0.00000000       1.76727273       0.00000000       0.00000000       1.72798550
2
Properties=species:S:1:pos:R:3:forces:R:3 energy=-0.7675629842976954 pbc="F F F"
Li       0.00000000       0.00000000       0.00000000       0.00000000       0.00000000      -1.92515314
Li       0.00000000       0.00000000       1.82606061       0.00000000       0.00000000       1.92515314
2
Properties=species:S:1:pos:R:3:forces:R:3 energy=-0.8840275039614313 pbc="F F F"
Li       0.00000000       0.00000000       0.00000000       0.00000000       0.00000000      -2.01793623
Li       0.00000000       0.00000000       1.88484848       0.00000000       0.00000000       2.01793623
2
Properties=species:S:1:pos:R:3:forces:R:3 energy=-1.0025662042264776 pbc="F F F"
Li       0.00000000       0.00000000       0.00000000       0.00000000       0.00000000      -1.99624646
Li       0.00000000       0.00000000       1.94363636       0.00000000       0.00000000       1.99624646
2
Properties=species:S:1:pos:R:3:forces:R:3 energy=-1.1167273320385513 pbc="F F F"
Li       0.00000000       0.00000000       0.00000000       0.00000000       0.00000000      -1.87244320
Li       0.00000000       0.00000000       2.00242424       0.00000000       0.00000000       1.87244320
2
Properties=species:S:1:pos:R:3:forces:R:3 energy=-1.2212256225842009 pbc="F F F"
Li       0.00000000       0.00000000       0.00000000       0.00000000       0.00000000      -1.67261314
Li       0.00000000       0.00000000       2.06121212       0.00000000       0.00000000       1.67261314
2
Properties=species:S:1:pos:R:3:forces:R:3 energy=-1.3125274186656744 pbc="F F F"
Li       0.00000000       0.00000000       0.00000000       0.00000000       0.00000000      -1.42886817
Li       0.00000000       0.00000000       2.12000000       0.00000000       0.00000000       1.42886817
2
Properties=species:S:1:pos:R:3:forces:R:3 energy=-1.3889404137051724 pbc="F F F"
Li       0.00000000       0.00000000       0.00000000       0.00000000       0.00000000      -1.17026544
Li       0.00000000       0.00000000       2.17878788       0.00000000       0.00000000       1.17026544
2
Properties=species:S:1:pos:R:3:forces:R:3 energy=-1.4502367368979066 pbc="F F F"
Li       0.00000000       0.00000000       0.00000000       0.00000000       0.00000000      -0.91718322
Li       0.00000000       0.00000000       2.23757576       0.00000000       0.00000000       0.91718322
2
Properties=species:S:1:pos:R:3:forces:R:3 energy=-1.4971208484610068 pbc="F F F"
Li       0.00000000       0.00000000       0.00000000       0.00000000       0.00000000      -0.68134791
Li       0.00000000       0.00000000       2.29636364       0.00000000       0.00000000       0.68134791
2
Properties=species:S:1:pos:R:3:forces:R:3 energy=-1.530805659078361 pbc="F F F"
Li       0.00000000       0.00000000       0.00000000       0.00000000       0.00000000      -0.46883416
Li       0.00000000       0.00000000       2.35515152       0.00000000       0.00000000       0.46883416
2
Properties=species:S:1:pos:R:3:forces:R:3 energy=-1.5527648402594494 pbc="F F F"
Li       0.00000000       0.00000000       0.00000000       0.00000000       0.00000000      -0.28282380
Li       0.00000000       0.00000000       2.41393939       0.00000000       0.00000000       0.28282380
2
Properties=species:S:1:pos:R:3:forces:R:3 energy=-1.564610168571891 pbc="F F F"
Li       0.00000000       0.00000000       0.00000000       0.00000000       0.00000000      -0.12489726
Li       0.00000000       0.00000000       2.47272727       0.00000000       0.00000000       0.12489726
2
Properties=species:S:1:pos:R:3:forces:R:3 energy=-1.5680015446427387 pbc="F F F"
Li       0.00000000       0.00000000       0.00000000       0.00000000       0.00000000       0.00491656
Li       0.00000000       0.00000000       2.53151515       0.00000000       0.00000000      -0.00491656
2
Properties=species:S:1:pos:R:3:forces:R:3 energy=-1.5645481865926805 pbc="F F F"
Li       0.00000000       0.00000000       0.00000000       0.00000000       0.00000000       0.10845310
Li       0.00000000       0.00000000       2.59030303       0.00000000       0.00000000      -0.10845310
2
Properties=species:S:1:pos:R:3:forces:R:3 energy=-1.5556933200794445 pbc="F F F"
Li       0.00000000       0.00000000       0.00000000       0.00000000       0.00000000       0.18940847
Li       0.00000000       0.00000000       2.64909091       0.00000000       0.00000000      -0.18940847
2
Properties=species:S:1:pos:R:3:forces:R:3 energy=-1.5426274099829693 pbc="F F F"
Li       0.00000000       0.00000000       0.00000000       0.00000000       0.00000000       0.25253856
Li       0.00000000       0.00000000       2.70787879       0.00000000       0.00000000      -0.25253856
2
Properties=species:S:1:pos:R:3:forces:R:3 energy=-1.5262559573078682 pbc="F F F"
Li       0.00000000       0.00000000       0.00000000       0.00000000       0.00000000       0.30262271
Li       0.00000000       0.00000000       2.76666667       0.00000000       0.00000000      -0.30262271
2
Properties=species:S:1:pos:R:3:forces:R:3 energy=-1.5072316365938578 pbc="F F F"
Li       0.00000000       0.00000000       0.00000000       0.00000000       0.00000000       0.34319192
Li       0.00000000       0.00000000       2.82545455       0.00000000       0.00000000      -0.34319192
2
Properties=species:S:1:pos:R:3:forces:R:3 energy=-1.4860692672910736 pbc="F F F"
Li       0.00000000       0.00000000       0.00000000       0.00000000       0.00000000       0.37521988
Li       0.00000000       0.00000000       2.88424242       0.00000000       0.00000000      -0.37521988
2
Properties=species:S:1:pos:R:3:forces:R:3 energy=-1.4633377446027784 pbc="F F F"
Li       0.00000000       0.00000000       0.00000000       0.00000000       0.00000000       0.39568931
Li       0.00000000       0.00000000       2.94303030       0.00000000       0.00000000      -0.39568931
2
Properties=species:S:1:pos:R:3:forces:R:3 energy=-1.439937577074249 pbc="F F F"
Li       0.00000000       0.00000000       0.00000000       0.00000000       0.00000000       0.39595360
Li       0.00000000       0.00000000       3.00181818       0.00000000       0.00000000      -0.39595360
2
Properties=species:S:1:pos:R:3:forces:R:3 energy=-1.41745245792902 pbc="F F F"
Li       0.00000000       0.00000000       0.00000000       0.00000000       0.00000000       0.36217952
Li       0.00000000       0.00000000       3.06060606       0.00000000       0.00000000      -0.36217952
2
Properties=species:S:1:pos:R:3:forces:R:3 energy=-1.3981798886220411 pbc="F F F"
Li       0.00000000       0.00000000       0.00000000       0.00000000       0.00000000       0.28761578
Li       0.00000000       0.00000000       3.11939394       0.00000000       0.00000000      -0.28761578
2
Properties=species:S:1:pos:R:3:forces:R:3 energy=-1.3838643561823134 pbc="F F F"
Li       0.00000000       0.00000000       0.00000000       0.00000000       0.00000000       0.20311999
Li       0.00000000       0.00000000       3.17818182       0.00000000       0.00000000      -0.20311999
2
Properties=species:S:1:pos:R:3:forces:R:3 energy=-1.3731376699296014 pbc="F F F"
Li       0.00000000       0.00000000       0.00000000       0.00000000       0.00000000       0.17620429
Li       0.00000000       0.00000000       3.23696970       0.00000000       0.00000000      -0.17620429
2
Properties=species:S:1:pos:R:3:forces:R:3 energy=-1.3614496296613052 pbc="F F F"
Li       0.00000000       0.00000000       0.00000000       0.00000000       0.00000000       0.23296359
Li       0.00000000       0.00000000       3.29575758       0.00000000       0.00000000      -0.23296359
2
Properties=species:S:1:pos:R:3:forces:R:3 energy=-1.344995559459547 pbc="F F F"
Li       0.00000000       0.00000000       0.00000000       0.00000000       0.00000000       0.32811207
Li       0.00000000       0.00000000       3.35454545       0.00000000       0.00000000      -0.32811207
2
Properties=species:S:1:pos:R:3:forces:R:3 energy=-1.3231378146302877 pbc="F F F"
Li       0.00000000       0.00000000       0.00000000       0.00000000       0.00000000       0.41097081
Li       0.00000000       0.00000000       3.41333333       0.00000000       0.00000000      -0.41097081
2
Properties=species:S:1:pos:R:3:forces:R:3 energy=-1.2972858912410332 pbc="F F F"
Li       0.00000000       0.00000000       0.00000000       0.00000000       0.00000000       0.46338749
Li       0.00000000       0.00000000       3.47212121       0.00000000       0.00000000      -0.46338749
2
Properties=species:S:1:pos:R:3:forces:R:3 energy=-1.2691905041097575 pbc="F F F"
Li       0.00000000       0.00000000       0.00000000       0.00000000       0.00000000       0.48863190
Li       0.00000000       0.00000000       3.53090909       0.00000000       0.00000000      -0.48863190
2
Properties=species:S:1:pos:R:3:forces:R:3 energy=-1.240192283449988 pbc="F F F"
Li       0.00000000       0.00000000       0.00000000       0.00000000       0.00000000       0.49556488
Li       0.00000000       0.00000000       3.58969697       0.00000000       0.00000000      -0.49556488
2
Properties=species:S:1:pos:R:3:forces:R:3 energy=-1.2111286913106216 pbc="F F F"
Li       0.00000000       0.00000000       0.00000000       0.00000000       0.00000000       0.49196181
Li       0.00000000       0.00000000       3.64848485       0.00000000       0.00000000      -0.49196181
2
Properties=species:S:1:pos:R:3:forces:R:3 energy=-1.1824490310193474 pbc="F F F"
Li       0.00000000       0.00000000       0.00000000       0.00000000       0.00000000       0.48320347
Li       0.00000000       0.00000000       3.70727273       0.00000000       0.00000000      -0.48320347
2
Properties=species:S:1:pos:R:3:forces:R:3 energy=-1.1543500515806204 pbc="F F F"
Li       0.00000000       0.00000000       0.00000000       0.00000000       0.00000000       0.47262371
Li       0.00000000       0.00000000       3.76606061       0.00000000       0.00000000      -0.47262371
2
Properties=species:S:1:pos:R:3:forces:R:3 energy=-1.126878254119603 pbc="F F F"
Li       0.00000000       0.00000000       0.00000000       0.00000000       0.00000000       0.46209294
Li       0.00000000       0.00000000       3.82484848       0.00000000       0.00000000      -0.46209294
2
Properties=species:S:1:pos:R:3:forces:R:3 energy=-1.1000004481093055 pbc="F F F"
Li       0.00000000       0.00000000       0.00000000       0.00000000       0.00000000       0.45248693
Li       0.00000000       0.00000000       3.88363636       0.00000000       0.00000000      -0.45248693
2
Properties=species:S:1:pos:R:3:forces:R:3 energy=-1.0736543953397721 pbc="F F F"
Li       0.00000000       0.00000000       0.00000000       0.00000000       0.00000000       0.44401580
Li       0.00000000       0.00000000       3.94242424       0.00000000       0.00000000      -0.44401580
2
Properties=species:S:1:pos:R:3:forces:R:3 energy=-1.0477774902900339 pbc="F F F"
Li       0.00000000       0.00000000       0.00000000       0.00000000       0.00000000       0.43644986
Li       0.00000000       0.00000000       4.00121212       0.00000000       0.00000000      -0.43644986
2
Properties=species:S:1:pos:R:3:forces:R:3 energy=-1.0223308249668595 pbc="F F F"
Li       0.00000000       0.00000000       0.00000000       0.00000000       0.00000000       0.42927760
Li       0.00000000       0.00000000       4.06000000       0.00000000       0.00000000      -0.42927760
2
Properties=species:S:1:pos:R:3:forces:R:3 energy=-0.9973101784549088 pbc="F F F"
Li       0.00000000       0.00000000       0.00000000       0.00000000       0.00000000       0.42184183
Li       0.00000000       0.00000000       4.11878788       0.00000000       0.00000000      -0.42184183
2
Properties=species:S:1:pos:R:3:forces:R:3 energy=-0.9727508039037914 pbc="F F F"
Li       0.00000000       0.00000000       0.00000000       0.00000000       0.00000000       0.41345948
Li       0.00000000       0.00000000       4.17757576       0.00000000       0.00000000      -0.41345948
2
Properties=species:S:1:pos:R:3:forces:R:3 energy=-0.948727215380306 pbc="F F F"
Li       0.00000000       0.00000000       0.00000000       0.00000000       0.00000000       0.40354040
Li       0.00000000       0.00000000       4.23636364       0.00000000       0.00000000      -0.40354040
2
Properties=species:S:1:pos:R:3:forces:R:3 energy=-0.925341791134126 pbc="F F F"
Li       0.00000000       0.00000000       0.00000000       0.00000000       0.00000000       0.39169914
Li       0.00000000       0.00000000       4.29515152       0.00000000       0.00000000      -0.39169914
2
Properties=species:S:1:pos:R:3:forces:R:3 energy=-0.902712897690423 pbc="F F F"
Li       0.00000000       0.00000000       0.00000000       0.00000000       0.00000000       0.37783852
Li       0.00000000       0.00000000       4.35393939       0.00000000       0.00000000      -0.37783852
2
Properties=species:S:1:pos:R:3:forces:R:3 energy=-0.8809532444443227 pbc="F F F"
Li       0.00000000       0.00000000       0.00000000       0.00000000       0.00000000       0.36216438
Li       0.00000000       0.00000000       4.41272727       0.00000000       0.00000000      -0.36216438
2
Properties=species:S:1:pos:R:3:forces:R:3 energy=-0.8601574957342919 pbc="F F F"
Li       0.00000000       0.00000000       0.00000000       0.00000000       0.00000000       0.34513342
Li       0.00000000       0.00000000       4.47151515       0.00000000       0.00000000      -0.34513342
2
Properties=species:S:1:pos:R:3:forces:R:3 energy=-0.8403886556405531 pbc="F F F"
Li       0.00000000       0.00000000       0.00000000       0.00000000       0.00000000       0.32733363
Li       0.00000000       0.00000000       4.53030303       0.00000000       0.00000000      -0.32733363
2
Properties=species:S:1:pos:R:3:forces:R:3 energy=-0.8216753336750209 pbc="F F F"
Li       0.00000000       0.00000000       0.00000000       0.00000000       0.00000000       0.30932027
Li       0.00000000       0.00000000       4.58909091       0.00000000       0.00000000      -0.30932027
2
Properties=species:S:1:pos:R:3:forces:R:3 energy=-0.8040166271944807 pbc="F F F"
Li       0.00000000       0.00000000       0.00000000       0.00000000       0.00000000       0.29149249
Li       0.00000000       0.00000000       4.64787879       0.00000000       0.00000000      -0.29149249
2
Properties=species:S:1:pos:R:3:forces:R:3 energy=-0.7873954639215296 pbc="F F F"
Li       0.00000000       0.00000000       0.00000000       0.00000000       0.00000000       0.27402601
Li       0.00000000       0.00000000       4.70666667       0.00000000       0.00000000      -0.27402601
2
Properties=species:S:1:pos:R:3:forces:R:3 energy=-0.7717909208511681 pbc="F F F"
Li       0.00000000       0.00000000       0.00000000       0.00000000       0.00000000       0.25691301
Li       0.00000000       0.00000000       4.76545455       0.00000000       0.00000000      -0.25691301
2
Properties=species:S:1:pos:R:3:forces:R:3 energy=-0.7571827490361124 pbc="F F F"
Li       0.00000000       0.00000000       0.00000000       0.00000000       0.00000000       0.24008338
Li       0.00000000       0.00000000       4.82424242       0.00000000       0.00000000      -0.24008338
2
Properties=species:S:1:pos:R:3:forces:R:3 energy=-0.7435572641112417 pbc="F F F"
Li       0.00000000       0.00000000       0.00000000       0.00000000       0.00000000       0.22356518
Li       0.00000000       0.00000000       4.88303030       0.00000000       0.00000000      -0.22356518
2
Properties=species:S:1:pos:R:3:forces:R:3 energy=-0.7308868878132583 pbc="F F F"
Li       0.00000000       0.00000000       0.00000000       0.00000000       0.00000000       0.20759028
Li       0.00000000       0.00000000       4.94181818       0.00000000       0.00000000      -0.20759028
2
Properties=species:S:1:pos:R:3:forces:R:3 energy=-0.7191296798150772 pbc="F F F"
Li       0.00000000       0.00000000       0.00000000       0.00000000       0.00000000       0.19261369
Li       0.00000000       0.00000000       5.00060606       0.00000000       0.00000000      -0.19261369
2
Properties=species:S:1:pos:R:3:forces:R:3 energy=-0.7082099227867749 pbc="F F F"
Li       0.00000000       0.00000000       0.00000000       0.00000000       0.00000000       0.17915341
Li       0.00000000       0.00000000       5.05939394       0.00000000       0.00000000      -0.17915341
2
Properties=species:S:1:pos:R:3:forces:R:3 energy=-0.6980299583773213 pbc="F F F"
Li       0.00000000       0.00000000       0.00000000       0.00000000       0.00000000       0.16748793
Li       0.00000000       0.00000000       5.11818182       0.00000000       0.00000000      -0.16748793
2
Properties=species:S:1:pos:R:3:forces:R:3 energy=-0.6884890004436094 pbc="F F F"
Li       0.00000000       0.00000000       0.00000000       0.00000000       0.00000000       0.15726613
Li       0.00000000       0.00000000       5.17696970       0.00000000       0.00000000      -0.15726613
2
Properties=species:S:1:pos:R:3:forces:R:3 energy=-0.679534852627244 pbc="F F F"
Li       0.00000000       0.00000000       0.00000000       0.00000000       0.00000000       0.14726229
Li       0.00000000       0.00000000       5.23575758       0.00000000       0.00000000      -0.14726229
2
Properties=species:S:1:pos:R:3:forces:R:3 energy=-0.6712048466580607 pbc="F F F"
Li       0.00000000       0.00000000       0.00000000       0.00000000       0.00000000       0.13576150
Li       0.00000000       0.00000000       5.29454545       0.00000000       0.00000000      -0.13576150
2
Properties=species:S:1:pos:R:3:forces:R:3 energy=-0.6636098286316242 pbc="F F F"
Li       0.00000000       0.00000000       0.00000000       0.00000000       0.00000000       0.12250061
Li       0.00000000       0.00000000       5.35333333       0.00000000       0.00000000      -0.12250061
2
Properties=species:S:1:pos:R:3:forces:R:3 energy=-0.6567645832108662 pbc="F F F"
Li       0.00000000       0.00000000       0.00000000       0.00000000       0.00000000       0.11119940
Li       0.00000000       0.00000000       5.41212121       0.00000000       0.00000000      -0.11119940
2
Properties=species:S:1:pos:R:3:forces:R:3 energy=-0.6504159635089044 pbc="F F F"
Li       0.00000000       0.00000000       0.00000000       0.00000000       0.00000000       0.10557482
Li       0.00000000       0.00000000       5.47090909       0.00000000       0.00000000      -0.10557482
2
Properties=species:S:1:pos:R:3:forces:R:3 energy=-0.6443440656075545 pbc="F F F"
Li       0.00000000       0.00000000       0.00000000       0.00000000       0.00000000       0.10027616
Li       0.00000000       0.00000000       5.52969697       0.00000000       0.00000000      -0.10027616
2
Properties=species:S:1:pos:R:3:forces:R:3 energy=-0.638736295220628 pbc="F F F"
Li       0.00000000       0.00000000       0.00000000       0.00000000       0.00000000       0.08981514
Li       0.00000000       0.00000000       5.58848485       0.00000000       0.00000000      -0.08981514
2
Properties=species:S:1:pos:R:3:forces:R:3 energy=-0.6337878193370456 pbc="F F F"
Li       0.00000000       0.00000000       0.00000000       0.00000000       0.00000000       0.07934575
Li       0.00000000       0.00000000       5.64727273       0.00000000       0.00000000      -0.07934575
2
Properties=species:S:1:pos:R:3:forces:R:3 energy=-0.6292563201083414 pbc="F F F"
Li       0.00000000       0.00000000       0.00000000       0.00000000       0.00000000       0.07622514
Li       0.00000000       0.00000000       5.70606061       0.00000000       0.00000000      -0.07622514
2
Properties=species:S:1:pos:R:3:forces:R:3 energy=-0.6247338480497022 pbc="F F F"
Li       0.00000000       0.00000000       0.00000000       0.00000000       0.00000000       0.07690021
Li       0.00000000       0.00000000       5.76484848       0.00000000       0.00000000      -0.07690021
2
Properties=species:S:1:pos:R:3:forces:R:3 energy=-0.620420795687955 pbc="F F F"
Li       0.00000000       0.00000000       0.00000000       0.00000000       0.00000000       0.06747422
Li       0.00000000       0.00000000       5.82363636       0.00000000       0.00000000      -0.06747422
2
Properties=species:S:1:pos:R:3:forces:R:3 energy=-0.6170421894656128 pbc="F F F"
Li       0.00000000       0.00000000       0.00000000       0.00000000       0.00000000       0.04677664
Li       0.00000000       0.00000000       5.88242424       0.00000000       0.00000000      -0.04677664
2
Properties=species:S:1:pos:R:3:forces:R:3 energy=-0.6148985823914017 pbc="F F F"
Li       0.00000000       0.00000000       0.00000000       0.00000000       0.00000000       0.02722628
Li       0.00000000       0.00000000       5.94121212       0.00000000       0.00000000      -0.02722628
2
Properties=species:S:1:pos:R:3:forces:R:3 energy=-0.6136136477925289 pbc="F F F"
Li       0.00000000       0.00000000       0.00000000       0.00000000       0.00000000       0.01887134
Li       0.00000000       0.00000000       6.00000000       0.00000000       0.00000000      -0.01887134
