2
Properties=species:S:1:pos:R:3:forces:R:3 energy=13985.770850533194 pbc="F F F"
Lu       0.00000000       0.00000000       0.00000000       0.00000000       0.00000000 -244138.68750000
Lu       0.00000000       0.00000000       0.18000000       0.00000000       0.00000000  244138.68750000
2
Properties=species:S:1:pos:R:3:forces:R:3 energy=5442.481299751943 pbc="F F F"
Lu       0.00000000       0.00000000       0.00000000       0.00000000       0.00000000  -80998.07031250
Lu       0.00000000       0.00000000       0.23878788       0.00000000       0.00000000   80998.07031250
2
Properties=species:S:1:pos:R:3:forces:R:3 energy=2387.7403329550684 pbc="F F F"
Lu       0.00000000       0.00000000       0.00000000       0.00000000       0.00000000  -31621.49023438
Lu       0.00000000       0.00000000       0.29757576       0.00000000       0.00000000   31621.49023438
2
Properties=species:S:1:pos:R:3:forces:R:3 energy=1138.381934523904 pbc="F F F"
Lu       0.00000000       0.00000000       0.00000000       0.00000000       0.00000000  -13658.83203125
Lu       0.00000000       0.00000000       0.35636364       0.00000000       0.00000000   13658.83203125
2
Properties=species:S:1:pos:R:3:forces:R:3 energy=580.6084359887477 pbc="F F F"
Lu       0.00000000       0.00000000       0.00000000       0.00000000       0.00000000   -6343.69628906
Lu       0.00000000       0.00000000       0.41515152       0.00000000       0.00000000    6343.69628906
2
Properties=species:S:1:pos:R:3:forces:R:3 energy=314.5616830717315 pbc="F F F"
Lu       0.00000000       0.00000000       0.00000000       0.00000000       0.00000000   -3124.96118164
Lu       0.00000000       0.00000000       0.47393939       0.00000000       0.00000000    3124.96118164
2
Properties=species:S:1:pos:R:3:forces:R:3 energy=180.4204935092075 pbc="F F F"
Lu       0.00000000       0.00000000       0.00000000       0.00000000       0.00000000   -1620.43371582
Lu       0.00000000       0.00000000       0.53272727       0.00000000       0.00000000    1620.43371582
2
Properties=species:S:1:pos:R:3:forces:R:3 energy=109.38999885094431 pbc="F F F"
Lu       0.00000000       0.00000000       0.00000000       0.00000000       0.00000000    -879.74578857
Lu       0.00000000       0.00000000       0.59151515       0.00000000       0.00000000     879.74578857
2
Properties=species:S:1:pos:R:3:forces:R:3 energy=70.08501385524274 pbc="F F F"
Lu       0.00000000       0.00000000       0.00000000       0.00000000       0.00000000    -497.88861084
Lu       0.00000000       0.00000000       0.65030303       0.00000000       0.00000000     497.88861084
2
Properties=species:S:1:pos:R:3:forces:R:3 energy=47.440555154182874 pbc="F F F"
Lu       0.00000000       0.00000000       0.00000000       0.00000000       0.00000000    -292.99389648
Lu       0.00000000       0.00000000       0.70909091       0.00000000       0.00000000     292.99389648
2
Properties=species:S:1:pos:R:3:forces:R:3 energy=33.86972396939635 pbc="F F F"
Lu       0.00000000       0.00000000       0.00000000       0.00000000       0.00000000    -179.58227539
Lu       0.00000000       0.00000000       0.76787879       0.00000000       0.00000000     179.58227539
2
Properties=species:S:1:pos:R:3:forces:R:3 energy=25.3676031751147 pbc="F F F"
Lu       0.00000000       0.00000000       0.00000000       0.00000000       0.00000000    -115.71676636
Lu       0.00000000       0.00000000       0.82666667       0.00000000       0.00000000     115.71676636
2
Properties=species:S:1:pos:R:3:forces:R:3 energy=19.72110760311303 pbc="F F F"
Lu       0.00000000       0.00000000       0.00000000       0.00000000       0.00000000     -79.87432098
Lu       0.00000000       0.00000000       0.88545455       0.00000000       0.00000000      79.87432098
2
Properties=species:S:1:pos:R:3:forces:R:3 energy=15.66054391043577 pbc="F F F"
Lu       0.00000000       0.00000000       0.00000000       0.00000000       0.00000000     -60.28303146
Lu       0.00000000       0.00000000       0.94424242       0.00000000       0.00000000      60.28303146
2
Properties=species:S:1:pos:R:3:forces:R:3 energy=12.45996760338253 pbc="F F F"
Lu       0.00000000       0.00000000       0.00000000       0.00000000       0.00000000     -49.58893967
Lu       0.00000000       0.00000000       1.00303030       0.00000000       0.00000000      49.58893967
2
Properties=species:S:1:pos:R:3:forces:R:3 energy=9.763850842159556 pbc="F F F"
Lu       0.00000000       0.00000000       0.00000000       0.00000000       0.00000000     -42.32886124
Lu       0.00000000       0.00000000       1.06181818       0.00000000       0.00000000      42.32886124
2
Properties=species:S:1:pos:R:3:forces:R:3 energy=7.488895000621146 pbc="F F F"
Lu       0.00000000       0.00000000       0.00000000       0.00000000       0.00000000     -34.90437698
Lu       0.00000000       0.00000000       1.12060606       0.00000000       0.00000000      34.90437698
2
Properties=species:S:1:pos:R:3:forces:R:3 energy=5.671587689791222 pbc="F F F"
Lu       0.00000000       0.00000000       0.00000000       0.00000000       0.00000000     -26.90520287
Lu       0.00000000       0.00000000       1.17939394       0.00000000       0.00000000      26.90520287
2
Properties=species:S:1:pos:R:3:forces:R:3 energy=4.32513260660816 pbc="F F F"
Lu       0.00000000       0.00000000       0.00000000       0.00000000       0.00000000     -18.90823364
Lu       0.00000000       0.00000000       1.23818182       0.00000000       0.00000000      18.90823364
2
Properties=species:S:1:pos:R:3:forces:R:3 energy=3.4423756007965927 pbc="F F F"
Lu       0.00000000       0.00000000       0.00000000       0.00000000       0.00000000     -11.25809669
Lu       0.00000000       0.00000000       1.29696970       0.00000000       0.00000000      11.25809669
2
Properties=species:S:1:pos:R:3:forces:R:3 energy=2.972814686540378 pbc="F F F"
Lu       0.00000000       0.00000000       0.00000000       0.00000000       0.00000000      -5.06347561
Lu       0.00000000       0.00000000       1.35575758       0.00000000       0.00000000       5.06347561
2
Properties=species:S:1:pos:R:3:forces:R:3 energy=2.799255325323741 pbc="F F F"
Lu       0.00000000       0.00000000       0.00000000       0.00000000       0.00000000      -1.26229739
Lu       0.00000000       0.00000000       1.41454545       0.00000000       0.00000000       1.26229739
2
Properties=species:S:1:pos:R:3:forces:R:3 energy=2.7797808793267063 pbc="F F F"
Lu       0.00000000       0.00000000       0.00000000       0.00000000       0.00000000       0.27898023
Lu       0.00000000       0.00000000       1.47333333       0.00000000       0.00000000      -0.27898023
2
Properties=species:S:1:pos:R:3:forces:R:3 energy=2.8015474912718767 pbc="F F F"
Lu       0.00000000       0.00000000       0.00000000       0.00000000       0.00000000       0.26451629
Lu       0.00000000       0.00000000       1.53212121       0.00000000       0.00000000      -0.26451629
2
Properties=species:S:1:pos:R:3:forces:R:3 energy=2.796663012882464 pbc="F F F"
Lu       0.00000000       0.00000000       0.00000000       0.00000000       0.00000000      -0.47065341
Lu       0.00000000       0.00000000       1.59090909       0.00000000       0.00000000       0.47065341
2
Properties=species:S:1:pos:R:3:forces:R:3 energy=2.7472927070755273 pbc="F F F"
Lu       0.00000000       0.00000000       0.00000000       0.00000000       0.00000000      -1.19097555
Lu       0.00000000       0.00000000       1.64969697       0.00000000       0.00000000       1.19097555
2
Properties=species:S:1:pos:R:3:forces:R:3 energy=2.655469533397104 pbc="F F F"
Lu       0.00000000       0.00000000       0.00000000       0.00000000       0.00000000      -1.96892869
Lu       0.00000000       0.00000000       1.70848485       0.00000000       0.00000000       1.96892869
2
Properties=species:S:1:pos:R:3:forces:R:3 energy=2.5105871989375417 pbc="F F F"
Lu       0.00000000       0.00000000       0.00000000       0.00000000       0.00000000      -3.00222993
Lu       0.00000000       0.00000000       1.76727273       0.00000000       0.00000000       3.00222993
2
Properties=species:S:1:pos:R:3:forces:R:3 energy=2.298748299728203 pbc="F F F"
Lu       0.00000000       0.00000000       0.00000000       0.00000000       0.00000000      -4.22297239
Lu       0.00000000       0.00000000       1.82606061       0.00000000       0.00000000       4.22297239
2
Properties=species:S:1:pos:R:3:forces:R:3 energy=2.014017941436216 pbc="F F F"
Lu       0.00000000       0.00000000       0.00000000       0.00000000       0.00000000      -5.44366455
Lu       0.00000000       0.00000000       1.88484848       0.00000000       0.00000000       5.44366455
2
Properties=species:S:1:pos:R:3:forces:R:3 energy=1.663670102183737 pbc="F F F"
Lu       0.00000000       0.00000000       0.00000000       0.00000000       0.00000000      -6.41242456
Lu       0.00000000       0.00000000       1.94363636       0.00000000       0.00000000       6.41242456
2
Properties=species:S:1:pos:R:3:forces:R:3 energy=1.2689952323031002 pbc="F F F"
Lu       0.00000000       0.00000000       0.00000000       0.00000000       0.00000000      -6.93381548
Lu       0.00000000       0.00000000       2.00242424       0.00000000       0.00000000       6.93381548
2
Properties=species:S:1:pos:R:3:forces:R:3 energy=0.8570233517906415 pbc="F F F"
Lu       0.00000000       0.00000000       0.00000000       0.00000000       0.00000000      -7.02332926
Lu       0.00000000       0.00000000       2.06121212       0.00000000       0.00000000       7.02332926
2
Properties=species:S:1:pos:R:3:forces:R:3 energy=0.4478781601446594 pbc="F F F"
Lu       0.00000000       0.00000000       0.00000000       0.00000000       0.00000000      -6.87360764
Lu       0.00000000       0.00000000       2.12000000       0.00000000       0.00000000       6.87360764
2
Properties=species:S:1:pos:R:3:forces:R:3 energy=0.05027084027317365 pbc="F F F"
Lu       0.00000000       0.00000000       0.00000000       0.00000000       0.00000000      -6.64593935
Lu       0.00000000       0.00000000       2.17878788       0.00000000       0.00000000       6.64593935
2
Properties=species:S:1:pos:R:3:forces:R:3 energy=-0.33251194601829387 pbc="F F F"
Lu       0.00000000       0.00000000       0.00000000       0.00000000       0.00000000      -6.36462116
Lu       0.00000000       0.00000000       2.23757576       0.00000000       0.00000000       6.36462116
2
Properties=species:S:1:pos:R:3:forces:R:3 energy=-0.6962500584949513 pbc="F F F"
Lu       0.00000000       0.00000000       0.00000000       0.00000000       0.00000000      -5.99220276
Lu       0.00000000       0.00000000       2.29636364       0.00000000       0.00000000       5.99220276
2
Properties=species:S:1:pos:R:3:forces:R:3 energy=-1.0348971264589353 pbc="F F F"
Lu       0.00000000       0.00000000       0.00000000       0.00000000       0.00000000      -5.51113796
Lu       0.00000000       0.00000000       2.35515152       0.00000000       0.00000000       5.51113796
2
Properties=species:S:1:pos:R:3:forces:R:3 energy=-1.3423669849004516 pbc="F F F"
Lu       0.00000000       0.00000000       0.00000000       0.00000000       0.00000000      -4.93582869
Lu       0.00000000       0.00000000       2.41393939       0.00000000       0.00000000       4.93582869
2
Properties=species:S:1:pos:R:3:forces:R:3 energy=-1.6140413638999263 pbc="F F F"
Lu       0.00000000       0.00000000       0.00000000       0.00000000       0.00000000      -4.30012369
Lu       0.00000000       0.00000000       2.47272727       0.00000000       0.00000000       4.30012369
2
Properties=species:S:1:pos:R:3:forces:R:3 energy=-1.8476024247154488 pbc="F F F"
Lu       0.00000000       0.00000000       0.00000000       0.00000000       0.00000000      -3.64617682
Lu       0.00000000       0.00000000       2.53151515       0.00000000       0.00000000       3.64617682
2
Properties=species:S:1:pos:R:3:forces:R:3 energy=-2.043152760355792 pbc="F F F"
Lu       0.00000000       0.00000000       0.00000000       0.00000000       0.00000000      -3.01262665
Lu       0.00000000       0.00000000       2.59030303       0.00000000       0.00000000       3.01262665
2
Properties=species:S:1:pos:R:3:forces:R:3 energy=-2.202712261518469 pbc="F F F"
Lu       0.00000000       0.00000000       0.00000000       0.00000000       0.00000000      -2.42433977
Lu       0.00000000       0.00000000       2.64909091       0.00000000       0.00000000       2.42433977
2
Properties=species:S:1:pos:R:3:forces:R:3 energy=-2.3292537462834395 pbc="F F F"
Lu       0.00000000       0.00000000       0.00000000       0.00000000       0.00000000      -1.88950717
Lu       0.00000000       0.00000000       2.70787879       0.00000000       0.00000000       1.88950717
2
Properties=species:S:1:pos:R:3:forces:R:3 energy=-2.425836496311502 pbc="F F F"
Lu       0.00000000       0.00000000       0.00000000       0.00000000       0.00000000      -1.40374756
Lu       0.00000000       0.00000000       2.76666667       0.00000000       0.00000000       1.40374756
2
Properties=species:S:1:pos:R:3:forces:R:3 energy=-2.4950713647620777 pbc="F F F"
Lu       0.00000000       0.00000000       0.00000000       0.00000000       0.00000000      -0.95744228
Lu       0.00000000       0.00000000       2.82545455       0.00000000       0.00000000       0.95744228
2
Properties=species:S:1:pos:R:3:forces:R:3 energy=-2.5390227914248946 pbc="F F F"
Lu       0.00000000       0.00000000       0.00000000       0.00000000       0.00000000      -0.54271078
Lu       0.00000000       0.00000000       2.88424242       0.00000000       0.00000000       0.54271078
2
Properties=species:S:1:pos:R:3:forces:R:3 energy=-2.559462244005473 pbc="F F F"
Lu       0.00000000       0.00000000       0.00000000       0.00000000       0.00000000      -0.15788911
Lu       0.00000000       0.00000000       2.94303030       0.00000000       0.00000000       0.15788911
2
Properties=species:S:1:pos:R:3:forces:R:3 energy=-2.558272599041958 pbc="F F F"
Lu       0.00000000       0.00000000       0.00000000       0.00000000       0.00000000       0.19179146
Lu       0.00000000       0.00000000       3.00181818       0.00000000       0.00000000      -0.19179146
2
Properties=species:S:1:pos:R:3:forces:R:3 energy=-2.5377793750035775 pbc="F F F"
Lu       0.00000000       0.00000000       0.00000000       0.00000000       0.00000000       0.49726421
Lu       0.00000000       0.00000000       3.06060606       0.00000000       0.00000000      -0.49726421
2
Properties=species:S:1:pos:R:3:forces:R:3 energy=-2.5008297628819216 pbc="F F F"
Lu       0.00000000       0.00000000       0.00000000       0.00000000       0.00000000       0.75071430
Lu       0.00000000       0.00000000       3.11939394       0.00000000       0.00000000      -0.75071430
2
Properties=species:S:1:pos:R:3:forces:R:3 energy=-2.450581973536807 pbc="F F F"
Lu       0.00000000       0.00000000       0.00000000       0.00000000       0.00000000       0.94985461
Lu       0.00000000       0.00000000       3.17818182       0.00000000       0.00000000      -0.94985461
2
Properties=species:S:1:pos:R:3:forces:R:3 energy=-2.390130085566176 pbc="F F F"
Lu       0.00000000       0.00000000       0.00000000       0.00000000       0.00000000       1.09916580
Lu       0.00000000       0.00000000       3.23696970       0.00000000       0.00000000      -1.09916580
2
Properties=species:S:1:pos:R:3:forces:R:3 energy=-2.3221399731280963 pbc="F F F"
Lu       0.00000000       0.00000000       0.00000000       0.00000000       0.00000000       1.20806861
Lu       0.00000000       0.00000000       3.29575758       0.00000000       0.00000000      -1.20806861
2
Properties=species:S:1:pos:R:3:forces:R:3 energy=-2.2486662391579446 pbc="F F F"
Lu       0.00000000       0.00000000       0.00000000       0.00000000       0.00000000       1.28748369
Lu       0.00000000       0.00000000       3.35454545       0.00000000       0.00000000      -1.28748369
2
Properties=species:S:1:pos:R:3:forces:R:3 energy=-2.1711594559527323 pbc="F F F"
Lu       0.00000000       0.00000000       0.00000000       0.00000000       0.00000000       1.34656525
Lu       0.00000000       0.00000000       3.41333333       0.00000000       0.00000000      -1.34656525
2
Properties=species:S:1:pos:R:3:forces:R:3 energy=-2.090634782463492 pbc="F F F"
Lu       0.00000000       0.00000000       0.00000000       0.00000000       0.00000000       1.39061701
Lu       0.00000000       0.00000000       3.47212121       0.00000000       0.00000000      -1.39061701
2
Properties=species:S:1:pos:R:3:forces:R:3 energy=-2.0079295150453427 pbc="F F F"
Lu       0.00000000       0.00000000       0.00000000       0.00000000       0.00000000       1.42062199
Lu       0.00000000       0.00000000       3.53090909       0.00000000       0.00000000      -1.42062199
2
Properties=species:S:1:pos:R:3:forces:R:3 energy=-1.923922146950386 pbc="F F F"
Lu       0.00000000       0.00000000       0.00000000       0.00000000       0.00000000       1.43437004
Lu       0.00000000       0.00000000       3.58969697       0.00000000       0.00000000      -1.43437004
2
Properties=species:S:1:pos:R:3:forces:R:3 energy=-1.839664620947019 pbc="F F F"
Lu       0.00000000       0.00000000       0.00000000       0.00000000       0.00000000       1.42863488
Lu       0.00000000       0.00000000       3.64848485       0.00000000       0.00000000      -1.42863488
2
Properties=species:S:1:pos:R:3:forces:R:3 energy=-1.7563736016992217 pbc="F F F"
Lu       0.00000000       0.00000000       0.00000000       0.00000000       0.00000000       1.40136659
Lu       0.00000000       0.00000000       3.70727273       0.00000000       0.00000000      -1.40136659
2
Properties=species:S:1:pos:R:3:forces:R:3 energy=-1.6753143659185332 pbc="F F F"
Lu       0.00000000       0.00000000       0.00000000       0.00000000       0.00000000       1.35291398
Lu       0.00000000       0.00000000       3.76606061       0.00000000       0.00000000      -1.35291398
2
Properties=species:S:1:pos:R:3:forces:R:3 energy=-1.5976669631780602 pbc="F F F"
Lu       0.00000000       0.00000000       0.00000000       0.00000000       0.00000000       1.28595364
Lu       0.00000000       0.00000000       3.82484848       0.00000000       0.00000000      -1.28595364
2
Properties=species:S:1:pos:R:3:forces:R:3 energy=-1.524399169320085 pbc="F F F"
Lu       0.00000000       0.00000000       0.00000000       0.00000000       0.00000000       1.20465660
Lu       0.00000000       0.00000000       3.88363636       0.00000000       0.00000000      -1.20465660
2
Properties=species:S:1:pos:R:3:forces:R:3 energy=-1.4562121091810503 pbc="F F F"
Lu       0.00000000       0.00000000       0.00000000       0.00000000       0.00000000       1.11399162
Lu       0.00000000       0.00000000       3.94242424       0.00000000       0.00000000      -1.11399162
2
Properties=species:S:1:pos:R:3:forces:R:3 energy=-1.3934971155000295 pbc="F F F"
Lu       0.00000000       0.00000000       0.00000000       0.00000000       0.00000000       1.01948249
Lu       0.00000000       0.00000000       4.00121212       0.00000000       0.00000000      -1.01948249
2
Properties=species:S:1:pos:R:3:forces:R:3 energy=-1.3363046786505972 pbc="F F F"
Lu       0.00000000       0.00000000       0.00000000       0.00000000       0.00000000       0.92708498
Lu       0.00000000       0.00000000       4.06000000       0.00000000       0.00000000      -0.92708498
2
Properties=species:S:1:pos:R:3:forces:R:3 energy=-1.2843366041702966 pbc="F F F"
Lu       0.00000000       0.00000000       0.00000000       0.00000000       0.00000000       0.84272498
Lu       0.00000000       0.00000000       4.11878788       0.00000000       0.00000000      -0.84272498
2
Properties=species:S:1:pos:R:3:forces:R:3 energy=-1.236964860499676 pbc="F F F"
Lu       0.00000000       0.00000000       0.00000000       0.00000000       0.00000000       0.77134115
Lu       0.00000000       0.00000000       4.17757576       0.00000000       0.00000000      -0.77134115
2
Properties=species:S:1:pos:R:3:forces:R:3 energy=-1.1933286101762919 pbc="F F F"
Lu       0.00000000       0.00000000       0.00000000       0.00000000       0.00000000       0.71597940
Lu       0.00000000       0.00000000       4.23636364       0.00000000       0.00000000      -0.71597940
2
Properties=species:S:1:pos:R:3:forces:R:3 energy=-1.1524540151707072 pbc="F F F"
Lu       0.00000000       0.00000000       0.00000000       0.00000000       0.00000000       0.67728418
Lu       0.00000000       0.00000000       4.29515152       0.00000000       0.00000000      -0.67728418
2
Properties=species:S:1:pos:R:3:forces:R:3 energy=-1.113400921333437 pbc="F F F"
Lu       0.00000000       0.00000000       0.00000000       0.00000000       0.00000000       0.65364379
Lu       0.00000000       0.00000000       4.35393939       0.00000000       0.00000000      -0.65364379
2
Properties=species:S:1:pos:R:3:forces:R:3 energy=-1.0753718093499542 pbc="F F F"
Lu       0.00000000       0.00000000       0.00000000       0.00000000       0.00000000       0.64174676
Lu       0.00000000       0.00000000       4.41272727       0.00000000       0.00000000      -0.64174676
2
Properties=species:S:1:pos:R:3:forces:R:3 energy=-1.0377997190953296 pbc="F F F"
Lu       0.00000000       0.00000000       0.00000000       0.00000000       0.00000000       0.63733327
Lu       0.00000000       0.00000000       4.47151515       0.00000000       0.00000000      -0.63733327
2
Properties=species:S:1:pos:R:3:forces:R:3 energy=-1.0003790957458496 pbc="F F F"
Lu       0.00000000       0.00000000       0.00000000       0.00000000       0.00000000       0.63583356
Lu       0.00000000       0.00000000       4.53030303       0.00000000       0.00000000      -0.63583356
2
Properties=species:S:1:pos:R:3:forces:R:3 energy=-0.9630715003215786 pbc="F F F"
Lu       0.00000000       0.00000000       0.00000000       0.00000000       0.00000000       0.63281387
Lu       0.00000000       0.00000000       4.58909091       0.00000000       0.00000000      -0.63281387
2
Properties=species:S:1:pos:R:3:forces:R:3 energy=-0.9260853251002025 pbc="F F F"
Lu       0.00000000       0.00000000       0.00000000       0.00000000       0.00000000       0.62426192
Lu       0.00000000       0.00000000       4.64787879       0.00000000       0.00000000      -0.62426192
2
Properties=species:S:1:pos:R:3:forces:R:3 energy=-0.8898482309285648 pbc="F F F"
Lu       0.00000000       0.00000000       0.00000000       0.00000000       0.00000000       0.60678136
Lu       0.00000000       0.00000000       4.70666667       0.00000000       0.00000000      -0.60678136
2
Properties=species:S:1:pos:R:3:forces:R:3 energy=-0.8549653174333237 pbc="F F F"
Lu       0.00000000       0.00000000       0.00000000       0.00000000       0.00000000       0.57798004
Lu       0.00000000       0.00000000       4.76545455       0.00000000       0.00000000      -0.57798004
2
Properties=species:S:1:pos:R:3:forces:R:3 energy=-0.8221296907112109 pbc="F F F"
Lu       0.00000000       0.00000000       0.00000000       0.00000000       0.00000000       0.53706288
Lu       0.00000000       0.00000000       4.82424242       0.00000000       0.00000000      -0.53706288
2
Properties=species:S:1:pos:R:3:forces:R:3 energy=-0.7920297590994737 pbc="F F F"
Lu       0.00000000       0.00000000       0.00000000       0.00000000       0.00000000       0.48557216
Lu       0.00000000       0.00000000       4.88303030       0.00000000       0.00000000      -0.48557216
2
Properties=species:S:1:pos:R:3:forces:R:3 energy=-0.7651643257285409 pbc="F F F"
Lu       0.00000000       0.00000000       0.00000000       0.00000000       0.00000000       0.42780042
Lu       0.00000000       0.00000000       4.94181818       0.00000000       0.00000000      -0.42780042
2
Properties=species:S:1:pos:R:3:forces:R:3 energy=-0.7417209544489685 pbc="F F F"
Lu       0.00000000       0.00000000       0.00000000       0.00000000       0.00000000       0.37049165
Lu       0.00000000       0.00000000       5.00060606       0.00000000       0.00000000      -0.37049165
2
Properties=species:S:1:pos:R:3:forces:R:3 energy=-0.7214437223798188 pbc="F F F"
Lu       0.00000000       0.00000000       0.00000000       0.00000000       0.00000000       0.32122880
Lu       0.00000000       0.00000000       5.05939394       0.00000000       0.00000000      -0.32122880
2
Properties=species:S:1:pos:R:3:forces:R:3 energy=-0.703678580459228 pbc="F F F"
Lu       0.00000000       0.00000000       0.00000000       0.00000000       0.00000000       0.28575093
Lu       0.00000000       0.00000000       5.11818182       0.00000000       0.00000000      -0.28575093
2
Properties=species:S:1:pos:R:3:forces:R:3 energy=-0.687555254148972 pbc="F F F"
Lu       0.00000000       0.00000000       0.00000000       0.00000000       0.00000000       0.26495934
Lu       0.00000000       0.00000000       5.17696970       0.00000000       0.00000000      -0.26495934
2
Properties=species:S:1:pos:R:3:forces:R:3 energy=-0.6723420693008385 pbc="F F F"
Lu       0.00000000       0.00000000       0.00000000       0.00000000       0.00000000       0.25340834
Lu       0.00000000       0.00000000       5.23575758       0.00000000       0.00000000      -0.25340834
2
Properties=species:S:1:pos:R:3:forces:R:3 energy=-0.6577655473421622 pbc="F F F"
Lu       0.00000000       0.00000000       0.00000000       0.00000000       0.00000000       0.24177557
Lu       0.00000000       0.00000000       5.29454545       0.00000000       0.00000000      -0.24177557
2
Properties=species:S:1:pos:R:3:forces:R:3 energy=-0.6440029362722711 pbc="F F F"
Lu       0.00000000       0.00000000       0.00000000       0.00000000       0.00000000       0.22630033
Lu       0.00000000       0.00000000       5.35333333       0.00000000       0.00000000      -0.22630033
2
Properties=species:S:1:pos:R:3:forces:R:3 energy=-0.630992577418839 pbc="F F F"
Lu       0.00000000       0.00000000       0.00000000       0.00000000       0.00000000       0.21941058
Lu       0.00000000       0.00000000       5.41212121       0.00000000       0.00000000      -0.21941058
2
Properties=species:S:1:pos:R:3:forces:R:3 energy=-0.617817877594891 pbc="F F F"
Lu       0.00000000       0.00000000       0.00000000       0.00000000       0.00000000       0.23053397
Lu       0.00000000       0.00000000       5.47090909       0.00000000       0.00000000      -0.23053397
2
Properties=species:S:1:pos:R:3:forces:R:3 energy=-0.6040579978667464 pbc="F F F"
Lu       0.00000000       0.00000000       0.00000000       0.00000000       0.00000000       0.23330367
Lu       0.00000000       0.00000000       5.52969697       0.00000000       0.00000000      -0.23330367
2
Properties=species:S:1:pos:R:3:forces:R:3 energy=-0.5909249523692008 pbc="F F F"
Lu       0.00000000       0.00000000       0.00000000       0.00000000       0.00000000       0.21036869
Lu       0.00000000       0.00000000       5.58848485       0.00000000       0.00000000      -0.21036869
2
Properties=species:S:1:pos:R:3:forces:R:3 energy=-0.5793634243174008 pbc="F F F"
Lu       0.00000000       0.00000000       0.00000000       0.00000000       0.00000000       0.18591826
Lu       0.00000000       0.00000000       5.64727273       0.00000000       0.00000000      -0.18591826
2
Properties=species:S:1:pos:R:3:forces:R:3 energy=-0.5685165703767472 pbc="F F F"
Lu       0.00000000       0.00000000       0.00000000       0.00000000       0.00000000       0.18761852
Lu       0.00000000       0.00000000       5.70606061       0.00000000       0.00000000      -0.18761852
2
Properties=species:S:1:pos:R:3:forces:R:3 energy=-0.5571844524538374 pbc="F F F"
Lu       0.00000000       0.00000000       0.00000000       0.00000000       0.00000000       0.19274059
Lu       0.00000000       0.00000000       5.76484848       0.00000000       0.00000000      -0.19274059
2
Properties=species:S:1:pos:R:3:forces:R:3 energy=-0.5467771809161074 pbc="F F F"
Lu       0.00000000       0.00000000       0.00000000       0.00000000       0.00000000       0.15351203
Lu       0.00000000       0.00000000       5.82363636       0.00000000       0.00000000      -0.15351203
2
Properties=species:S:1:pos:R:3:forces:R:3 energy=-0.5396634544507077 pbc="F F F"
Lu       0.00000000       0.00000000       0.00000000       0.00000000       0.00000000       0.08927292
Lu       0.00000000       0.00000000       5.88242424       0.00000000       0.00000000      -0.08927292
2
Properties=species:S:1:pos:R:3:forces:R:3 energy=-0.53595716195897 pbc="F F F"
Lu       0.00000000       0.00000000       0.00000000       0.00000000       0.00000000       0.04091115
Lu       0.00000000       0.00000000       5.94121212       0.00000000       0.00000000      -0.04091115
2
Properties=species:S:1:pos:R:3:forces:R:3 energy=-0.5342417883146307 pbc="F F F"
Lu       0.00000000       0.00000000       0.00000000       0.00000000       0.00000000       0.02315903
Lu       0.00000000       0.00000000       6.00000000       0.00000000       0.00000000      -0.02315903
