2
Properties=species:S:1:pos:R:3:forces:R:3 energy=6782.3513045320715 pbc="F F F"
Mo       0.00000000       0.00000000       0.00000000       0.00000000       0.00000000 -110769.00781250
Mo       0.00000000       0.00000000       0.18000000       0.00000000       0.00000000  110769.00781250
2
Properties=species:S:1:pos:R:3:forces:R:3 energy=2821.008286953946 pbc="F F F"
Mo       0.00000000       0.00000000       0.00000000       0.00000000       0.00000000  -38727.62109375
Mo       0.00000000       0.00000000       0.23878788       0.00000000       0.00000000   38727.62109375
2
Properties=species:S:1:pos:R:3:forces:R:3 energy=1327.0693221165318 pbc="F F F"
Mo       0.00000000       0.00000000       0.00000000       0.00000000       0.00000000  -15952.54492188
Mo       0.00000000       0.00000000       0.29757576       0.00000000       0.00000000   15952.54492188
2
Properties=species:S:1:pos:R:3:forces:R:3 energy=681.8222518040319 pbc="F F F"
Mo       0.00000000       0.00000000       0.00000000       0.00000000       0.00000000   -7270.61816406
Mo       0.00000000       0.00000000       0.35636364       0.00000000       0.00000000    7270.61816406
2
Properties=species:S:1:pos:R:3:forces:R:3 energy=378.50276329131253 pbc="F F F"
Mo       0.00000000       0.00000000       0.00000000       0.00000000       0.00000000   -3537.81298828
Mo       0.00000000       0.00000000       0.41515152       0.00000000       0.00000000    3537.81298828
2
Properties=species:S:1:pos:R:3:forces:R:3 energy=227.9125228254682 pbc="F F F"
Mo       0.00000000       0.00000000       0.00000000       0.00000000       0.00000000   -1794.12878418
Mo       0.00000000       0.00000000       0.47393939       0.00000000       0.00000000    1794.12878418
2
Properties=species:S:1:pos:R:3:forces:R:3 energy=150.7884536369436 pbc="F F F"
Mo       0.00000000       0.00000000       0.00000000       0.00000000       0.00000000    -925.30242920
Mo       0.00000000       0.00000000       0.53272727       0.00000000       0.00000000     925.30242920
2
Properties=species:S:1:pos:R:3:forces:R:3 energy=111.22470247326126 pbc="F F F"
Mo       0.00000000       0.00000000       0.00000000       0.00000000       0.00000000    -467.18939209
Mo       0.00000000       0.00000000       0.59151515       0.00000000       0.00000000     467.18939209
2
Properties=species:S:1:pos:R:3:forces:R:3 energy=91.6271836347262 pbc="F F F"
Mo       0.00000000       0.00000000       0.00000000       0.00000000       0.00000000    -248.21685791
Mo       0.00000000       0.00000000       0.65030303       0.00000000       0.00000000     248.21685791
2
Properties=species:S:1:pos:R:3:forces:R:3 energy=81.38212762176663 pbc="F F F"
Mo       0.00000000       0.00000000       0.00000000       0.00000000       0.00000000    -112.37706757
Mo       0.00000000       0.00000000       0.70909091       0.00000000       0.00000000     112.37706757
2
Properties=species:S:1:pos:R:3:forces:R:3 energy=76.94128614970255 pbc="F F F"
Mo       0.00000000       0.00000000       0.00000000       0.00000000       0.00000000     -49.14941025
Mo       0.00000000       0.00000000       0.76787879       0.00000000       0.00000000      49.14941025
2
Properties=species:S:1:pos:R:3:forces:R:3 energy=74.4344810465629 pbc="F F F"
Mo       0.00000000       0.00000000       0.00000000       0.00000000       0.00000000     -44.82415771
Mo       0.00000000       0.00000000       0.82666667       0.00000000       0.00000000      44.82415771
2
Properties=species:S:1:pos:R:3:forces:R:3 energy=71.04625210726952 pbc="F F F"
Mo       0.00000000       0.00000000       0.00000000       0.00000000       0.00000000     -74.52481079
Mo       0.00000000       0.00000000       0.88545455       0.00000000       0.00000000      74.52481079
2
Properties=species:S:1:pos:R:3:forces:R:3 energy=65.28914213245953 pbc="F F F"
Mo       0.00000000       0.00000000       0.00000000       0.00000000       0.00000000    -122.78543091
Mo       0.00000000       0.00000000       0.94424242       0.00000000       0.00000000     122.78543091
2
Properties=species:S:1:pos:R:3:forces:R:3 energy=56.61624182787142 pbc="F F F"
Mo       0.00000000       0.00000000       0.00000000       0.00000000       0.00000000    -170.77507019
Mo       0.00000000       0.00000000       1.00303030       0.00000000       0.00000000     170.77507019
2
Properties=species:S:1:pos:R:3:forces:R:3 energy=45.60500487014286 pbc="F F F"
Mo       0.00000000       0.00000000       0.00000000       0.00000000       0.00000000    -199.19656372
Mo       0.00000000       0.00000000       1.06181818       0.00000000       0.00000000     199.19656372
2
Properties=species:S:1:pos:R:3:forces:R:3 energy=33.68149487289925 pbc="F F F"
Mo       0.00000000       0.00000000       0.00000000       0.00000000       0.00000000    -203.66954041
Mo       0.00000000       0.00000000       1.12060606       0.00000000       0.00000000     203.66954041
2
Properties=species:S:1:pos:R:3:forces:R:3 energy=21.842677358507377 pbc="F F F"
Mo       0.00000000       0.00000000       0.00000000       0.00000000       0.00000000    -198.86914062
Mo       0.00000000       0.00000000       1.17939394       0.00000000       0.00000000     198.86914062
2
Properties=species:S:1:pos:R:3:forces:R:3 energy=11.039051009270173 pbc="F F F"
Mo       0.00000000       0.00000000       0.00000000       0.00000000       0.00000000    -155.38923645
Mo       0.00000000       0.00000000       1.23818182       0.00000000       0.00000000     155.38923645
2
Properties=species:S:1:pos:R:3:forces:R:3 energy=3.993576424007453 pbc="F F F"
Mo       0.00000000       0.00000000       0.00000000       0.00000000       0.00000000     -90.45750427
Mo       0.00000000       0.00000000       1.29696970       0.00000000       0.00000000      90.45750427
2
Properties=species:S:1:pos:R:3:forces:R:3 energy=-0.44467663721711537 pbc="F F F"
Mo       0.00000000       0.00000000       0.00000000       0.00000000       0.00000000     -65.39272308
Mo       0.00000000       0.00000000       1.35575758       0.00000000       0.00000000      65.39272308
2
Properties=species:S:1:pos:R:3:forces:R:3 energy=-3.9611418615989984 pbc="F F F"
Mo       0.00000000       0.00000000       0.00000000       0.00000000       0.00000000     -54.83789825
Mo       0.00000000       0.00000000       1.41454545       0.00000000       0.00000000      54.83789825
2
Properties=species:S:1:pos:R:3:forces:R:3 energy=-6.88948870253752 pbc="F F F"
Mo       0.00000000       0.00000000       0.00000000       0.00000000       0.00000000     -44.56915665
Mo       0.00000000       0.00000000       1.47333333       0.00000000       0.00000000      44.56915665
2
Properties=species:S:1:pos:R:3:forces:R:3 energy=-9.191954277371458 pbc="F F F"
Mo       0.00000000       0.00000000       0.00000000       0.00000000       0.00000000     -33.86717224
Mo       0.00000000       0.00000000       1.53212121       0.00000000       0.00000000      33.86717224
2
Properties=species:S:1:pos:R:3:forces:R:3 energy=-10.900000023030707 pbc="F F F"
Mo       0.00000000       0.00000000       0.00000000       0.00000000       0.00000000     -24.56736755
Mo       0.00000000       0.00000000       1.59090909       0.00000000       0.00000000      24.56736755
2
Properties=species:S:1:pos:R:3:forces:R:3 energy=-12.120178293285734 pbc="F F F"
Mo       0.00000000       0.00000000       0.00000000       0.00000000       0.00000000     -17.25716591
Mo       0.00000000       0.00000000       1.64969697       0.00000000       0.00000000      17.25716591
2
Properties=species:S:1:pos:R:3:forces:R:3 energy=-12.959165680993394 pbc="F F F"
Mo       0.00000000       0.00000000       0.00000000       0.00000000       0.00000000     -11.48009491
Mo       0.00000000       0.00000000       1.70848485       0.00000000       0.00000000      11.48009491
2
Properties=species:S:1:pos:R:3:forces:R:3 energy=-13.487302000584068 pbc="F F F"
Mo       0.00000000       0.00000000       0.00000000       0.00000000       0.00000000      -6.60661602
Mo       0.00000000       0.00000000       1.76727273       0.00000000       0.00000000       6.60661602
2
Properties=species:S:1:pos:R:3:forces:R:3 energy=-13.749400066060895 pbc="F F F"
Mo       0.00000000       0.00000000       0.00000000       0.00000000       0.00000000      -2.42854357
Mo       0.00000000       0.00000000       1.82606061       0.00000000       0.00000000       2.42854357
2
Properties=species:S:1:pos:R:3:forces:R:3 energy=-13.787967590912173 pbc="F F F"
Mo       0.00000000       0.00000000       0.00000000       0.00000000       0.00000000       0.97433567
Mo       0.00000000       0.00000000       1.88484848       0.00000000       0.00000000      -0.97433567
2
Properties=species:S:1:pos:R:3:forces:R:3 energy=-13.65375024141291 pbc="F F F"
Mo       0.00000000       0.00000000       0.00000000       0.00000000       0.00000000       3.41115785
Mo       0.00000000       0.00000000       1.94363636       0.00000000       0.00000000      -3.41115785
2
Properties=species:S:1:pos:R:3:forces:R:3 energy=-13.40954365026555 pbc="F F F"
Mo       0.00000000       0.00000000       0.00000000       0.00000000       0.00000000       4.70417213
Mo       0.00000000       0.00000000       2.00242424       0.00000000       0.00000000      -4.70417213
2
Properties=species:S:1:pos:R:3:forces:R:3 energy=-13.120663374498694 pbc="F F F"
Mo       0.00000000       0.00000000       0.00000000       0.00000000       0.00000000       4.98955059
Mo       0.00000000       0.00000000       2.06121212       0.00000000       0.00000000      -4.98955059
2
Properties=species:S:1:pos:R:3:forces:R:3 energy=-12.833208328967377 pbc="F F F"
Mo       0.00000000       0.00000000       0.00000000       0.00000000       0.00000000       4.74773026
Mo       0.00000000       0.00000000       2.12000000       0.00000000       0.00000000      -4.74773026
2
Properties=species:S:1:pos:R:3:forces:R:3 energy=-12.563295162476392 pbc="F F F"
Mo       0.00000000       0.00000000       0.00000000       0.00000000       0.00000000       4.45254946
Mo       0.00000000       0.00000000       2.17878788       0.00000000       0.00000000      -4.45254946
2
Properties=species:S:1:pos:R:3:forces:R:3 energy=-12.306328006821953 pbc="F F F"
Mo       0.00000000       0.00000000       0.00000000       0.00000000       0.00000000       4.32233667
Mo       0.00000000       0.00000000       2.23757576       0.00000000       0.00000000      -4.32233667
2
Properties=species:S:1:pos:R:3:forces:R:3 energy=-12.051540010741565 pbc="F F F"
Mo       0.00000000       0.00000000       0.00000000       0.00000000       0.00000000       4.37096930
Mo       0.00000000       0.00000000       2.29636364       0.00000000       0.00000000      -4.37096930
2
Properties=species:S:1:pos:R:3:forces:R:3 energy=-11.790347900409056 pbc="F F F"
Mo       0.00000000       0.00000000       0.00000000       0.00000000       0.00000000       4.52269268
Mo       0.00000000       0.00000000       2.35515152       0.00000000       0.00000000      -4.52269268
2
Properties=species:S:1:pos:R:3:forces:R:3 energy=-11.520416513708824 pbc="F F F"
Mo       0.00000000       0.00000000       0.00000000       0.00000000       0.00000000       4.64038801
Mo       0.00000000       0.00000000       2.41393939       0.00000000       0.00000000      -4.64038801
2
Properties=species:S:1:pos:R:3:forces:R:3 energy=-11.248873261914028 pbc="F F F"
Mo       0.00000000       0.00000000       0.00000000       0.00000000       0.00000000       4.54977083
Mo       0.00000000       0.00000000       2.47272727       0.00000000       0.00000000      -4.54977083
2
Properties=species:S:1:pos:R:3:forces:R:3 energy=-10.991842789673914 pbc="F F F"
Mo       0.00000000       0.00000000       0.00000000       0.00000000       0.00000000       4.14004850
Mo       0.00000000       0.00000000       2.53151515       0.00000000       0.00000000      -4.14004850
2
Properties=species:S:1:pos:R:3:forces:R:3 energy=-10.767513508348662 pbc="F F F"
Mo       0.00000000       0.00000000       0.00000000       0.00000000       0.00000000       3.45883369
Mo       0.00000000       0.00000000       2.59030303       0.00000000       0.00000000      -3.45883369
2
Properties=species:S:1:pos:R:3:forces:R:3 energy=-10.587106467008654 pbc="F F F"
Mo       0.00000000       0.00000000       0.00000000       0.00000000       0.00000000       2.67844748
Mo       0.00000000       0.00000000       2.64909091       0.00000000       0.00000000      -2.67844748
2
Properties=species:S:1:pos:R:3:forces:R:3 energy=-10.451069300954728 pbc="F F F"
Mo       0.00000000       0.00000000       0.00000000       0.00000000       0.00000000       1.97277367
Mo       0.00000000       0.00000000       2.70787879       0.00000000       0.00000000      -1.97277367
2
Properties=species:S:1:pos:R:3:forces:R:3 energy=-10.351788483072548 pbc="F F F"
Mo       0.00000000       0.00000000       0.00000000       0.00000000       0.00000000       1.43633354
Mo       0.00000000       0.00000000       2.76666667       0.00000000       0.00000000      -1.43633354
2
Properties=species:S:1:pos:R:3:forces:R:3 energy=-10.278482188559197 pbc="F F F"
Mo       0.00000000       0.00000000       0.00000000       0.00000000       0.00000000       1.08801126
Mo       0.00000000       0.00000000       2.82545455       0.00000000       0.00000000      -1.08801126
2
Properties=species:S:1:pos:R:3:forces:R:3 energy=-10.220533896562914 pbc="F F F"
Mo       0.00000000       0.00000000       0.00000000       0.00000000       0.00000000       0.90912813
Mo       0.00000000       0.00000000       2.88424242       0.00000000       0.00000000      -0.90912813
2
Properties=species:S:1:pos:R:3:forces:R:3 energy=-10.168986932586655 pbc="F F F"
Mo       0.00000000       0.00000000       0.00000000       0.00000000       0.00000000       0.86236197
Mo       0.00000000       0.00000000       2.94303030       0.00000000       0.00000000      -0.86236197
2
Properties=species:S:1:pos:R:3:forces:R:3 energy=-10.117684636244453 pbc="F F F"
Mo       0.00000000       0.00000000       0.00000000       0.00000000       0.00000000       0.88947922
Mo       0.00000000       0.00000000       3.00181818       0.00000000       0.00000000      -0.88947922
2
Properties=species:S:1:pos:R:3:forces:R:3 energy=-10.06429735394741 pbc="F F F"
Mo       0.00000000       0.00000000       0.00000000       0.00000000       0.00000000       0.92309791
Mo       0.00000000       0.00000000       3.06060606       0.00000000       0.00000000      -0.92309791
2
Properties=species:S:1:pos:R:3:forces:R:3 energy=-10.009860696575414 pbc="F F F"
Mo       0.00000000       0.00000000       0.00000000       0.00000000       0.00000000       0.92223036
Mo       0.00000000       0.00000000       3.11939394       0.00000000       0.00000000      -0.92223036
2
Properties=species:S:1:pos:R:3:forces:R:3 energy=-9.956473488369785 pbc="F F F"
Mo       0.00000000       0.00000000       0.00000000       0.00000000       0.00000000       0.89115083
Mo       0.00000000       0.00000000       3.17818182       0.00000000       0.00000000      -0.89115083
2
Properties=species:S:1:pos:R:3:forces:R:3 energy=-9.905128343459442 pbc="F F F"
Mo       0.00000000       0.00000000       0.00000000       0.00000000       0.00000000       0.85722655
Mo       0.00000000       0.00000000       3.23696970       0.00000000       0.00000000      -0.85722655
2
Properties=species:S:1:pos:R:3:forces:R:3 energy=-9.855413943908042 pbc="F F F"
Mo       0.00000000       0.00000000       0.00000000       0.00000000       0.00000000       0.83609593
Mo       0.00000000       0.00000000       3.29575758       0.00000000       0.00000000      -0.83609593
2
Properties=species:S:1:pos:R:3:forces:R:3 energy=-9.806761571981973 pbc="F F F"
Mo       0.00000000       0.00000000       0.00000000       0.00000000       0.00000000       0.81768996
Mo       0.00000000       0.00000000       3.35454545       0.00000000       0.00000000      -0.81768996
2
Properties=species:S:1:pos:R:3:forces:R:3 energy=-9.75968821272757 pbc="F F F"
Mo       0.00000000       0.00000000       0.00000000       0.00000000       0.00000000       0.77842522
Mo       0.00000000       0.00000000       3.41333333       0.00000000       0.00000000      -0.77842522
2
Properties=species:S:1:pos:R:3:forces:R:3 energy=-9.715976652958437 pbc="F F F"
Mo       0.00000000       0.00000000       0.00000000       0.00000000       0.00000000       0.70208001
Mo       0.00000000       0.00000000       3.47212121       0.00000000       0.00000000      -0.70208001
2
Properties=species:S:1:pos:R:3:forces:R:3 energy=-9.67785330705883 pbc="F F F"
Mo       0.00000000       0.00000000       0.00000000       0.00000000       0.00000000       0.58988035
Mo       0.00000000       0.00000000       3.53090909       0.00000000       0.00000000      -0.58988035
2
Properties=species:S:1:pos:R:3:forces:R:3 energy=-9.647037266674605 pbc="F F F"
Mo       0.00000000       0.00000000       0.00000000       0.00000000       0.00000000       0.45658150
Mo       0.00000000       0.00000000       3.58969697       0.00000000       0.00000000      -0.45658150
2
Properties=species:S:1:pos:R:3:forces:R:3 energy=-9.624183069488724 pbc="F F F"
Mo       0.00000000       0.00000000       0.00000000       0.00000000       0.00000000       0.32259536
Mo       0.00000000       0.00000000       3.64848485       0.00000000       0.00000000      -0.32259536
2
Properties=species:S:1:pos:R:3:forces:R:3 energy=-9.608709677744402 pbc="F F F"
Mo       0.00000000       0.00000000       0.00000000       0.00000000       0.00000000       0.20881821
Mo       0.00000000       0.00000000       3.70727273       0.00000000       0.00000000      -0.20881821
2
Properties=species:S:1:pos:R:3:forces:R:3 energy=-9.598885228546358 pbc="F F F"
Mo       0.00000000       0.00000000       0.00000000       0.00000000       0.00000000       0.13286817
Mo       0.00000000       0.00000000       3.76606061       0.00000000       0.00000000      -0.13286817
2
Properties=species:S:1:pos:R:3:forces:R:3 energy=-9.592133860237267 pbc="F F F"
Mo       0.00000000       0.00000000       0.00000000       0.00000000       0.00000000       0.10526533
Mo       0.00000000       0.00000000       3.82484848       0.00000000       0.00000000      -0.10526533
2
Properties=species:S:1:pos:R:3:forces:R:3 energy=-9.585533932864186 pbc="F F F"
Mo       0.00000000       0.00000000       0.00000000       0.00000000       0.00000000       0.12709591
Mo       0.00000000       0.00000000       3.88363636       0.00000000       0.00000000      -0.12709591
2
Properties=species:S:1:pos:R:3:forces:R:3 energy=-9.57637265782179 pbc="F F F"
Mo       0.00000000       0.00000000       0.00000000       0.00000000       0.00000000       0.19043161
Mo       0.00000000       0.00000000       3.94242424       0.00000000       0.00000000      -0.19043161
2
Properties=species:S:1:pos:R:3:forces:R:3 energy=-9.562609342815664 pbc="F F F"
Mo       0.00000000       0.00000000       0.00000000       0.00000000       0.00000000       0.28096858
Mo       0.00000000       0.00000000       4.00121212       0.00000000       0.00000000      -0.28096858
2
Properties=species:S:1:pos:R:3:forces:R:3 energy=-9.543140602021289 pbc="F F F"
Mo       0.00000000       0.00000000       0.00000000       0.00000000       0.00000000       0.38161382
Mo       0.00000000       0.00000000       4.06000000       0.00000000       0.00000000      -0.38161382
2
Properties=species:S:1:pos:R:3:forces:R:3 energy=-9.517867328698092 pbc="F F F"
Mo       0.00000000       0.00000000       0.00000000       0.00000000       0.00000000       0.47593272
Mo       0.00000000       0.00000000       4.11878788       0.00000000       0.00000000      -0.47593272
2
Properties=species:S:1:pos:R:3:forces:R:3 energy=-9.487567533387502 pbc="F F F"
Mo       0.00000000       0.00000000       0.00000000       0.00000000       0.00000000       0.55076212
Mo       0.00000000       0.00000000       4.17757576       0.00000000       0.00000000      -0.55076212
2
Properties=species:S:1:pos:R:3:forces:R:3 energy=-9.4536609574192 pbc="F F F"
Mo       0.00000000       0.00000000       0.00000000       0.00000000       0.00000000       0.59766400
Mo       0.00000000       0.00000000       4.23636364       0.00000000       0.00000000      -0.59766400
2
Properties=species:S:1:pos:R:3:forces:R:3 energy=-9.417912340814539 pbc="F F F"
Mo       0.00000000       0.00000000       0.00000000       0.00000000       0.00000000       0.61327308
Mo       0.00000000       0.00000000       4.29515152       0.00000000       0.00000000      -0.61327308
2
Properties=species:S:1:pos:R:3:forces:R:3 energy=-9.382148181014573 pbc="F F F"
Mo       0.00000000       0.00000000       0.00000000       0.00000000       0.00000000       0.59871179
Mo       0.00000000       0.00000000       4.35393939       0.00000000       0.00000000      -0.59871179
2
Properties=species:S:1:pos:R:3:forces:R:3 energy=-9.348025690269711 pbc="F F F"
Mo       0.00000000       0.00000000       0.00000000       0.00000000       0.00000000       0.55835038
Mo       0.00000000       0.00000000       4.41272727       0.00000000       0.00000000      -0.55835038
2
Properties=species:S:1:pos:R:3:forces:R:3 energy=-9.316885001463257 pbc="F F F"
Mo       0.00000000       0.00000000       0.00000000       0.00000000       0.00000000       0.49832666
Mo       0.00000000       0.00000000       4.47151515       0.00000000       0.00000000      -0.49832666
2
Properties=species:S:1:pos:R:3:forces:R:3 energy=-9.289690765894909 pbc="F F F"
Mo       0.00000000       0.00000000       0.00000000       0.00000000       0.00000000       0.42514890
Mo       0.00000000       0.00000000       4.53030303       0.00000000       0.00000000      -0.42514890
2
Properties=species:S:1:pos:R:3:forces:R:3 energy=-9.267038730798486 pbc="F F F"
Mo       0.00000000       0.00000000       0.00000000       0.00000000       0.00000000       0.34474087
Mo       0.00000000       0.00000000       4.58909091       0.00000000       0.00000000      -0.34474087
2
Properties=species:S:1:pos:R:3:forces:R:3 energy=-9.249203280505766 pbc="F F F"
Mo       0.00000000       0.00000000       0.00000000       0.00000000       0.00000000       0.26199973
Mo       0.00000000       0.00000000       4.64787879       0.00000000       0.00000000      -0.26199973
2
Properties=species:S:1:pos:R:3:forces:R:3 energy=-9.236203024562391 pbc="F F F"
Mo       0.00000000       0.00000000       0.00000000       0.00000000       0.00000000       0.18081427
Mo       0.00000000       0.00000000       4.70666667       0.00000000       0.00000000      -0.18081427
2
Properties=species:S:1:pos:R:3:forces:R:3 energy=-9.227851291781496 pbc="F F F"
Mo       0.00000000       0.00000000       0.00000000       0.00000000       0.00000000       0.10437019
Mo       0.00000000       0.00000000       4.76545455       0.00000000       0.00000000      -0.10437019
2
Properties=species:S:1:pos:R:3:forces:R:3 energy=-9.22378457891427 pbc="F F F"
Mo       0.00000000       0.00000000       0.00000000       0.00000000       0.00000000       0.03546371
Mo       0.00000000       0.00000000       4.82424242       0.00000000       0.00000000      -0.03546371
2
Properties=species:S:1:pos:R:3:forces:R:3 energy=-9.223480584930762 pbc="F F F"
Mo       0.00000000       0.00000000       0.00000000       0.00000000       0.00000000      -0.02322103
Mo       0.00000000       0.00000000       4.88303030       0.00000000       0.00000000       0.02322103
2
Properties=species:S:1:pos:R:3:forces:R:3 energy=-9.226264734684648 pbc="F F F"
Mo       0.00000000       0.00000000       0.00000000       0.00000000       0.00000000      -0.06914824
Mo       0.00000000       0.00000000       4.94181818       0.00000000       0.00000000       0.06914824
2
Properties=species:S:1:pos:R:3:forces:R:3 energy=-9.23131588828782 pbc="F F F"
Mo       0.00000000       0.00000000       0.00000000       0.00000000       0.00000000      -0.10005903
Mo       0.00000000       0.00000000       5.00060606       0.00000000       0.00000000       0.10005903
2
Properties=species:S:1:pos:R:3:forces:R:3 energy=-9.237704491250888 pbc="F F F"
Mo       0.00000000       0.00000000       0.00000000       0.00000000       0.00000000      -0.11440963
Mo       0.00000000       0.00000000       5.05939394       0.00000000       0.00000000       0.11440963
2
Properties=species:S:1:pos:R:3:forces:R:3 energy=-9.244435363114508 pbc="F F F"
Mo       0.00000000       0.00000000       0.00000000       0.00000000       0.00000000      -0.11184598
Mo       0.00000000       0.00000000       5.11818182       0.00000000       0.00000000       0.11184598
2
Properties=species:S:1:pos:R:3:forces:R:3 energy=-9.250548828108629 pbc="F F F"
Mo       0.00000000       0.00000000       0.00000000       0.00000000       0.00000000      -0.09381363
Mo       0.00000000       0.00000000       5.17696970       0.00000000       0.00000000       0.09381363
2
Properties=species:S:1:pos:R:3:forces:R:3 energy=-9.255239053131094 pbc="F F F"
Mo       0.00000000       0.00000000       0.00000000       0.00000000       0.00000000      -0.06438313
Mo       0.00000000       0.00000000       5.23575758       0.00000000       0.00000000       0.06438313
2
Properties=species:S:1:pos:R:3:forces:R:3 energy=-9.258041798042907 pbc="F F F"
Mo       0.00000000       0.00000000       0.00000000       0.00000000       0.00000000      -0.03114480
Mo       0.00000000       0.00000000       5.29454545       0.00000000       0.00000000       0.03114480
2
Properties=species:S:1:pos:R:3:forces:R:3 energy=-9.259022504920477 pbc="F F F"
Mo       0.00000000       0.00000000       0.00000000       0.00000000       0.00000000      -0.00390341
Mo       0.00000000       0.00000000       5.35333333       0.00000000       0.00000000       0.00390341
2
Properties=species:S:1:pos:R:3:forces:R:3 energy=-9.25870565646411 pbc="F F F"
Mo       0.00000000       0.00000000       0.00000000       0.00000000       0.00000000       0.01345604
Mo       0.00000000       0.00000000       5.41212121       0.00000000       0.00000000      -0.01345604
2
Properties=species:S:1:pos:R:3:forces:R:3 energy=-9.257446386986881 pbc="F F F"
Mo       0.00000000       0.00000000       0.00000000       0.00000000       0.00000000       0.03039159
Mo       0.00000000       0.00000000       5.47090909       0.00000000       0.00000000      -0.03039159
2
Properties=species:S:1:pos:R:3:forces:R:3 energy=-9.255010929071847 pbc="F F F"
Mo       0.00000000       0.00000000       0.00000000       0.00000000       0.00000000       0.05267705
Mo       0.00000000       0.00000000       5.52969697       0.00000000       0.00000000      -0.05267705
2
Properties=species:S:1:pos:R:3:forces:R:3 energy=-9.251385421259217 pbc="F F F"
Mo       0.00000000       0.00000000       0.00000000       0.00000000       0.00000000       0.06864788
Mo       0.00000000       0.00000000       5.58848485       0.00000000       0.00000000      -0.06864788
2
Properties=species:S:1:pos:R:3:forces:R:3 energy=-9.247128770711228 pbc="F F F"
Mo       0.00000000       0.00000000       0.00000000       0.00000000       0.00000000       0.07589164
Mo       0.00000000       0.00000000       5.64727273       0.00000000       0.00000000      -0.07589164
2
Properties=species:S:1:pos:R:3:forces:R:3 energy=-9.242302706656883 pbc="F F F"
Mo       0.00000000       0.00000000       0.00000000       0.00000000       0.00000000       0.09083343
Mo       0.00000000       0.00000000       5.70606061       0.00000000       0.00000000      -0.09083343
2
Properties=species:S:1:pos:R:3:forces:R:3 energy=-9.236234397850529 pbc="F F F"
Mo       0.00000000       0.00000000       0.00000000       0.00000000       0.00000000       0.11443357
Mo       0.00000000       0.00000000       5.76484848       0.00000000       0.00000000      -0.11443357
2
Properties=species:S:1:pos:R:3:forces:R:3 energy=-9.229358029355073 pbc="F F F"
Mo       0.00000000       0.00000000       0.00000000       0.00000000       0.00000000       0.11282460
Mo       0.00000000       0.00000000       5.82363636       0.00000000       0.00000000      -0.11282460
2
Properties=species:S:1:pos:R:3:forces:R:3 energy=-9.223740285009862 pbc="F F F"
Mo       0.00000000       0.00000000       0.00000000       0.00000000       0.00000000       0.07482657
Mo       0.00000000       0.00000000       5.88242424       0.00000000       0.00000000      -0.07482657
2
Properties=species:S:1:pos:R:3:forces:R:3 energy=-9.220650497730178 pbc="F F F"
Mo       0.00000000       0.00000000       0.00000000       0.00000000       0.00000000       0.03218317
Mo       0.00000000       0.00000000       5.94121212       0.00000000       0.00000000      -0.03218317
2
Properties=species:S:1:pos:R:3:forces:R:3 energy=-9.219447681485677 pbc="F F F"
Mo       0.00000000       0.00000000       0.00000000       0.00000000       0.00000000       0.01437535
Mo       0.00000000       0.00000000       6.00000000       0.00000000       0.00000000      -0.01437535
