2
Properties=species:S:1:pos:R:3:forces:R:3 energy=935.1370541809418 pbc="F F F"
Na       0.00000000       0.00000000       0.00000000       0.00000000       0.00000000  -13144.88476562
Na       0.00000000       0.00000000       0.18000000       0.00000000       0.00000000   13144.88476562
2
Properties=species:S:1:pos:R:3:forces:R:3 energy=440.39883396609804 pbc="F F F"
Na       0.00000000       0.00000000       0.00000000       0.00000000       0.00000000   -5167.43457031
Na       0.00000000       0.00000000       0.23878788       0.00000000       0.00000000    5167.43457031
2
Properties=species:S:1:pos:R:3:forces:R:3 energy=231.86799595340273 pbc="F F F"
Na       0.00000000       0.00000000       0.00000000       0.00000000       0.00000000   -2361.69921875
Na       0.00000000       0.00000000       0.29757576       0.00000000       0.00000000    2361.69921875
2
Properties=species:S:1:pos:R:3:forces:R:3 energy=131.84341404422304 pbc="F F F"
Na       0.00000000       0.00000000       0.00000000       0.00000000       0.00000000   -1196.51159668
Na       0.00000000       0.00000000       0.35636364       0.00000000       0.00000000    1196.51159668
2
Properties=species:S:1:pos:R:3:forces:R:3 energy=79.38619206252758 pbc="F F F"
Na       0.00000000       0.00000000       0.00000000       0.00000000       0.00000000    -651.99316406
Na       0.00000000       0.00000000       0.41515152       0.00000000       0.00000000     651.99316406
2
Properties=species:S:1:pos:R:3:forces:R:3 energy=50.071567277734545 pbc="F F F"
Na       0.00000000       0.00000000       0.00000000       0.00000000       0.00000000    -374.56964111
Na       0.00000000       0.00000000       0.47393939       0.00000000       0.00000000     374.56964111
2
Properties=species:S:1:pos:R:3:forces:R:3 energy=32.90642904102519 pbc="F F F"
Na       0.00000000       0.00000000       0.00000000       0.00000000       0.00000000    -223.96595764
Na       0.00000000       0.00000000       0.53272727       0.00000000       0.00000000     223.96595764
2
Properties=species:S:1:pos:R:3:forces:R:3 energy=22.485212087390888 pbc="F F F"
Na       0.00000000       0.00000000       0.00000000       0.00000000       0.00000000    -138.30325317
Na       0.00000000       0.00000000       0.59151515       0.00000000       0.00000000     138.30325317
2
Properties=species:S:1:pos:R:3:forces:R:3 energy=15.963280456559517 pbc="F F F"
Na       0.00000000       0.00000000       0.00000000       0.00000000       0.00000000     -87.89329529
Na       0.00000000       0.00000000       0.65030303       0.00000000       0.00000000      87.89329529
2
Properties=species:S:1:pos:R:3:forces:R:3 energy=11.762729455217718 pbc="F F F"
Na       0.00000000       0.00000000       0.00000000       0.00000000       0.00000000     -57.52053452
Na       0.00000000       0.00000000       0.70909091       0.00000000       0.00000000      57.52053452
2
Properties=species:S:1:pos:R:3:forces:R:3 energy=8.971043441522795 pbc="F F F"
Na       0.00000000       0.00000000       0.00000000       0.00000000       0.00000000     -38.95685196
Na       0.00000000       0.00000000       0.76787879       0.00000000       0.00000000      38.95685196
2
Properties=species:S:1:pos:R:3:forces:R:3 energy=7.043840806478456 pbc="F F F"
Na       0.00000000       0.00000000       0.00000000       0.00000000       0.00000000     -27.52003288
Na       0.00000000       0.00000000       0.82666667       0.00000000       0.00000000      27.52003288
2
Properties=species:S:1:pos:R:3:forces:R:3 energy=5.651635186333677 pbc="F F F"
Na       0.00000000       0.00000000       0.00000000       0.00000000       0.00000000     -20.38770294
Na       0.00000000       0.00000000       0.88545455       0.00000000       0.00000000      20.38770294
2
Properties=species:S:1:pos:R:3:forces:R:3 energy=4.598089845960015 pbc="F F F"
Na       0.00000000       0.00000000       0.00000000       0.00000000       0.00000000     -15.76013565
Na       0.00000000       0.00000000       0.94424242       0.00000000       0.00000000      15.76013565
2
Properties=species:S:1:pos:R:3:forces:R:3 energy=3.7710166956300277 pbc="F F F"
Na       0.00000000       0.00000000       0.00000000       0.00000000       0.00000000     -12.56959438
Na       0.00000000       0.00000000       1.00303030       0.00000000       0.00000000      12.56959438
2
Properties=species:S:1:pos:R:3:forces:R:3 energy=3.100256789579945 pbc="F F F"
Na       0.00000000       0.00000000       0.00000000       0.00000000       0.00000000     -10.38268948
Na       0.00000000       0.00000000       1.06181818       0.00000000       0.00000000      10.38268948
2
Properties=species:S:1:pos:R:3:forces:R:3 energy=2.5424160580715833 pbc="F F F"
Na       0.00000000       0.00000000       0.00000000       0.00000000       0.00000000      -8.60008144
Na       0.00000000       0.00000000       1.12060606       0.00000000       0.00000000       8.60008144
2
Properties=species:S:1:pos:R:3:forces:R:3 energy=2.091699041291074 pbc="F F F"
Na       0.00000000       0.00000000       0.00000000       0.00000000       0.00000000      -6.70947599
Na       0.00000000       0.00000000       1.17939394       0.00000000       0.00000000       6.70947599
2
Properties=species:S:1:pos:R:3:forces:R:3 energy=1.7538664358731575 pbc="F F F"
Na       0.00000000       0.00000000       0.00000000       0.00000000       0.00000000      -4.80893469
Na       0.00000000       0.00000000       1.23818182       0.00000000       0.00000000       4.80893469
2
Properties=species:S:1:pos:R:3:forces:R:3 energy=1.5201346898716417 pbc="F F F"
Na       0.00000000       0.00000000       0.00000000       0.00000000       0.00000000      -3.21651816
Na       0.00000000       0.00000000       1.29696970       0.00000000       0.00000000       3.21651816
2
Properties=species:S:1:pos:R:3:forces:R:3 energy=1.3658898600700822 pbc="F F F"
Na       0.00000000       0.00000000       0.00000000       0.00000000       0.00000000      -2.11547804
Na       0.00000000       0.00000000       1.35575758       0.00000000       0.00000000       2.11547804
2
Properties=species:S:1:pos:R:3:forces:R:3 energy=1.2626761341879478 pbc="F F F"
Na       0.00000000       0.00000000       0.00000000       0.00000000       0.00000000      -1.45705140
Na       0.00000000       0.00000000       1.41454545       0.00000000       0.00000000       1.45705140
2
Properties=species:S:1:pos:R:3:forces:R:3 energy=1.1879032801634082 pbc="F F F"
Na       0.00000000       0.00000000       0.00000000       0.00000000       0.00000000      -1.14456844
Na       0.00000000       0.00000000       1.47333333       0.00000000       0.00000000       1.14456844
2
Properties=species:S:1:pos:R:3:forces:R:3 energy=1.1219057482283827 pbc="F F F"
Na       0.00000000       0.00000000       0.00000000       0.00000000       0.00000000      -1.14320421
Na       0.00000000       0.00000000       1.53212121       0.00000000       0.00000000       1.14320421
2
Properties=species:S:1:pos:R:3:forces:R:3 energy=1.0494825083890458 pbc="F F F"
Na       0.00000000       0.00000000       0.00000000       0.00000000       0.00000000      -1.34992778
Na       0.00000000       0.00000000       1.59090909       0.00000000       0.00000000       1.34992778
2
Properties=species:S:1:pos:R:3:forces:R:3 energy=0.960127356437595 pbc="F F F"
Na       0.00000000       0.00000000       0.00000000       0.00000000       0.00000000      -1.71099854
Na       0.00000000       0.00000000       1.64969697       0.00000000       0.00000000       1.71099854
2
Properties=species:S:1:pos:R:3:forces:R:3 energy=0.8468872513379553 pbc="F F F"
Na       0.00000000       0.00000000       0.00000000       0.00000000       0.00000000      -2.14290524
Na       0.00000000       0.00000000       1.70848485       0.00000000       0.00000000       2.14290524
2
Properties=species:S:1:pos:R:3:forces:R:3 energy=0.7092503970998159 pbc="F F F"
Na       0.00000000       0.00000000       0.00000000       0.00000000       0.00000000      -2.52167678
Na       0.00000000       0.00000000       1.76727273       0.00000000       0.00000000       2.52167678
2
Properties=species:S:1:pos:R:3:forces:R:3 energy=0.5530519466466838 pbc="F F F"
Na       0.00000000       0.00000000       0.00000000       0.00000000       0.00000000      -2.76803970
Na       0.00000000       0.00000000       1.82606061       0.00000000       0.00000000       2.76803970
2
Properties=species:S:1:pos:R:3:forces:R:3 energy=0.38644733171849316 pbc="F F F"
Na       0.00000000       0.00000000       0.00000000       0.00000000       0.00000000      -2.88048100
Na       0.00000000       0.00000000       1.88484848       0.00000000       0.00000000       2.88048100
2
Properties=species:S:1:pos:R:3:forces:R:3 energy=0.21624256786760782 pbc="F F F"
Na       0.00000000       0.00000000       0.00000000       0.00000000       0.00000000      -2.89726400
Na       0.00000000       0.00000000       1.94363636       0.00000000       0.00000000       2.89726400
2
Properties=species:S:1:pos:R:3:forces:R:3 energy=0.0470706659877141 pbc="F F F"
Na       0.00000000       0.00000000       0.00000000       0.00000000       0.00000000      -2.84849882
Na       0.00000000       0.00000000       2.00242424       0.00000000       0.00000000       2.84849882
2
Properties=species:S:1:pos:R:3:forces:R:3 energy=-0.11762022662995773 pbc="F F F"
Na       0.00000000       0.00000000       0.00000000       0.00000000       0.00000000      -2.74582529
Na       0.00000000       0.00000000       2.06121212       0.00000000       0.00000000       2.74582529
2
Properties=species:S:1:pos:R:3:forces:R:3 energy=-0.2748234210358962 pbc="F F F"
Na       0.00000000       0.00000000       0.00000000       0.00000000       0.00000000      -2.59481263
Na       0.00000000       0.00000000       2.12000000       0.00000000       0.00000000       2.59481263
2
Properties=species:S:1:pos:R:3:forces:R:3 energy=-0.4218981003051661 pbc="F F F"
Na       0.00000000       0.00000000       0.00000000       0.00000000       0.00000000      -2.40261841
Na       0.00000000       0.00000000       2.17878788       0.00000000       0.00000000       2.40261841
2
Properties=species:S:1:pos:R:3:forces:R:3 energy=-0.5566940799784786 pbc="F F F"
Na       0.00000000       0.00000000       0.00000000       0.00000000       0.00000000      -2.17892766
Na       0.00000000       0.00000000       2.23757576       0.00000000       0.00000000       2.17892766
2
Properties=species:S:1:pos:R:3:forces:R:3 energy=-0.6777092223451322 pbc="F F F"
Na       0.00000000       0.00000000       0.00000000       0.00000000       0.00000000      -1.93602538
Na       0.00000000       0.00000000       2.29636364       0.00000000       0.00000000       1.93602538
2
Properties=species:S:1:pos:R:3:forces:R:3 energy=-0.7842267154433967 pbc="F F F"
Na       0.00000000       0.00000000       0.00000000       0.00000000       0.00000000      -1.68817496
Na       0.00000000       0.00000000       2.35515152       0.00000000       0.00000000       1.68817496
2
Properties=species:S:1:pos:R:3:forces:R:3 energy=-0.876369832598028 pbc="F F F"
Na       0.00000000       0.00000000       0.00000000       0.00000000       0.00000000      -1.44897568
Na       0.00000000       0.00000000       2.41393939       0.00000000       0.00000000       1.44897568
2
Properties=species:S:1:pos:R:3:forces:R:3 energy=-0.9549510467218297 pbc="F F F"
Na       0.00000000       0.00000000       0.00000000       0.00000000       0.00000000      -1.22792494
Na       0.00000000       0.00000000       2.47272727       0.00000000       0.00000000       1.22792494
2
Properties=species:S:1:pos:R:3:forces:R:3 energy=-1.0211734801534391 pbc="F F F"
Na       0.00000000       0.00000000       0.00000000       0.00000000       0.00000000      -1.02862501
Na       0.00000000       0.00000000       2.53151515       0.00000000       0.00000000       1.02862501
2
Properties=species:S:1:pos:R:3:forces:R:3 energy=-1.0762939148349433 pbc="F F F"
Na       0.00000000       0.00000000       0.00000000       0.00000000       0.00000000      -0.84974796
Na       0.00000000       0.00000000       2.59030303       0.00000000       0.00000000       0.84974796
2
Properties=species:S:1:pos:R:3:forces:R:3 energy=-1.121414934076501 pbc="F F F"
Na       0.00000000       0.00000000       0.00000000       0.00000000       0.00000000      -0.68781632
Na       0.00000000       0.00000000       2.64909091       0.00000000       0.00000000       0.68781632
2
Properties=species:S:1:pos:R:3:forces:R:3 energy=-1.1574374451649214 pbc="F F F"
Na       0.00000000       0.00000000       0.00000000       0.00000000       0.00000000      -0.53984058
Na       0.00000000       0.00000000       2.70787879       0.00000000       0.00000000       0.53984058
2
Properties=species:S:1:pos:R:3:forces:R:3 energy=-1.1851334140373535 pbc="F F F"
Na       0.00000000       0.00000000       0.00000000       0.00000000       0.00000000      -0.40449095
Na       0.00000000       0.00000000       2.76666667       0.00000000       0.00000000       0.40449095
2
Properties=species:S:1:pos:R:3:forces:R:3 energy=-1.2052462850205483 pbc="F F F"
Na       0.00000000       0.00000000       0.00000000       0.00000000       0.00000000      -0.28195724
Na       0.00000000       0.00000000       2.82545455       0.00000000       0.00000000       0.28195724
2
Properties=species:S:1:pos:R:3:forces:R:3 energy=-1.2185558425237466 pbc="F F F"
Na       0.00000000       0.00000000       0.00000000       0.00000000       0.00000000      -0.17324835
Na       0.00000000       0.00000000       2.88424242       0.00000000       0.00000000       0.17324835
2
Properties=species:S:1:pos:R:3:forces:R:3 energy=-1.2259079546764313 pbc="F F F"
Na       0.00000000       0.00000000       0.00000000       0.00000000       0.00000000      -0.07941751
Na       0.00000000       0.00000000       2.94303030       0.00000000       0.00000000       0.07941751
2
Properties=species:S:1:pos:R:3:forces:R:3 energy=-1.2281941468622428 pbc="F F F"
Na       0.00000000       0.00000000       0.00000000       0.00000000       0.00000000      -0.00089093
Na       0.00000000       0.00000000       3.00181818       0.00000000       0.00000000       0.00089093
2
Properties=species:S:1:pos:R:3:forces:R:3 energy=-1.226301083330888 pbc="F F F"
Na       0.00000000       0.00000000       0.00000000       0.00000000       0.00000000       0.06295436
Na       0.00000000       0.00000000       3.06060606       0.00000000       0.00000000      -0.06295436
2
Properties=species:S:1:pos:R:3:forces:R:3 energy=-1.2210460533099574 pbc="F F F"
Na       0.00000000       0.00000000       0.00000000       0.00000000       0.00000000       0.11385705
Na       0.00000000       0.00000000       3.11939394       0.00000000       0.00000000      -0.11385705
2
Properties=species:S:1:pos:R:3:forces:R:3 energy=-1.2131184078379775 pbc="F F F"
Na       0.00000000       0.00000000       0.00000000       0.00000000       0.00000000       0.15434407
Na       0.00000000       0.00000000       3.17818182       0.00000000       0.00000000      -0.15434407
2
Properties=species:S:1:pos:R:3:forces:R:3 energy=-1.203049489217911 pbc="F F F"
Na       0.00000000       0.00000000       0.00000000       0.00000000       0.00000000       0.18711713
Na       0.00000000       0.00000000       3.23696970       0.00000000       0.00000000      -0.18711713
2
Properties=species:S:1:pos:R:3:forces:R:3 energy=-1.1912260453834833 pbc="F F F"
Na       0.00000000       0.00000000       0.00000000       0.00000000       0.00000000       0.21431665
Na       0.00000000       0.00000000       3.29575758       0.00000000       0.00000000      -0.21431665
2
Properties=species:S:1:pos:R:3:forces:R:3 energy=-1.1779420537205212 pbc="F F F"
Na       0.00000000       0.00000000       0.00000000       0.00000000       0.00000000       0.23683263
Na       0.00000000       0.00000000       3.35454545       0.00000000       0.00000000      -0.23683263
2
Properties=species:S:1:pos:R:3:forces:R:3 energy=-1.1634885787492766 pbc="F F F"
Na       0.00000000       0.00000000       0.00000000       0.00000000       0.00000000       0.25376695
Na       0.00000000       0.00000000       3.41333333       0.00000000       0.00000000      -0.25376695
2
Properties=species:S:1:pos:R:3:forces:R:3 energy=-1.1482709690546489 pbc="F F F"
Na       0.00000000       0.00000000       0.00000000       0.00000000       0.00000000       0.26217368
Na       0.00000000       0.00000000       3.47212121       0.00000000       0.00000000      -0.26217368
2
Properties=species:S:1:pos:R:3:forces:R:3 energy=-1.1329216763532868 pbc="F F F"
Na       0.00000000       0.00000000       0.00000000       0.00000000       0.00000000       0.25740123
Na       0.00000000       0.00000000       3.53090909       0.00000000       0.00000000      -0.25740123
2
Properties=species:S:1:pos:R:3:forces:R:3 energy=-1.118353163256734 pbc="F F F"
Na       0.00000000       0.00000000       0.00000000       0.00000000       0.00000000       0.23513451
Na       0.00000000       0.00000000       3.58969697       0.00000000       0.00000000      -0.23513451
2
Properties=species:S:1:pos:R:3:forces:R:3 energy=-1.1055958039265898 pbc="F F F"
Na       0.00000000       0.00000000       0.00000000       0.00000000       0.00000000       0.19700062
Na       0.00000000       0.00000000       3.64848485       0.00000000       0.00000000      -0.19700062
2
Properties=species:S:1:pos:R:3:forces:R:3 energy=-1.0952207345319513 pbc="F F F"
Na       0.00000000       0.00000000       0.00000000       0.00000000       0.00000000       0.15775543
Na       0.00000000       0.00000000       3.70727273       0.00000000       0.00000000      -0.15775543
2
Properties=species:S:1:pos:R:3:forces:R:3 energy=-1.0865907679837215 pbc="F F F"
Na       0.00000000       0.00000000       0.00000000       0.00000000       0.00000000       0.14139654
Na       0.00000000       0.00000000       3.76606061       0.00000000       0.00000000      -0.14139654
2
Properties=species:S:1:pos:R:3:forces:R:3 energy=-1.07788197664643 pbc="F F F"
Na       0.00000000       0.00000000       0.00000000       0.00000000       0.00000000       0.16058876
Na       0.00000000       0.00000000       3.82484848       0.00000000       0.00000000      -0.16058876
2
Properties=species:S:1:pos:R:3:forces:R:3 energy=-1.0672000612463906 pbc="F F F"
Na       0.00000000       0.00000000       0.00000000       0.00000000       0.00000000       0.20546570
Na       0.00000000       0.00000000       3.88363636       0.00000000       0.00000000      -0.20546570
2
Properties=species:S:1:pos:R:3:forces:R:3 energy=-1.0535959779915482 pbc="F F F"
Na       0.00000000       0.00000000       0.00000000       0.00000000       0.00000000       0.25714338
Na       0.00000000       0.00000000       3.94242424       0.00000000       0.00000000      -0.25714338
2
Properties=species:S:1:pos:R:3:forces:R:3 energy=-1.037087942276959 pbc="F F F"
Na       0.00000000       0.00000000       0.00000000       0.00000000       0.00000000       0.30294299
Na       0.00000000       0.00000000       4.00121212       0.00000000       0.00000000      -0.30294299
2
Properties=species:S:1:pos:R:3:forces:R:3 energy=-1.018177201002335 pbc="F F F"
Na       0.00000000       0.00000000       0.00000000       0.00000000       0.00000000       0.33868814
Na       0.00000000       0.00000000       4.06000000       0.00000000       0.00000000      -0.33868814
2
Properties=species:S:1:pos:R:3:forces:R:3 energy=-0.9974570162979428 pbc="F F F"
Na       0.00000000       0.00000000       0.00000000       0.00000000       0.00000000       0.36474818
Na       0.00000000       0.00000000       4.11878788       0.00000000       0.00000000      -0.36474818
2
Properties=species:S:1:pos:R:3:forces:R:3 energy=-0.9754489399155545 pbc="F F F"
Na       0.00000000       0.00000000       0.00000000       0.00000000       0.00000000       0.38275847
Na       0.00000000       0.00000000       4.17757576       0.00000000       0.00000000      -0.38275847
2
Properties=species:S:1:pos:R:3:forces:R:3 energy=-0.9525808968580249 pbc="F F F"
Na       0.00000000       0.00000000       0.00000000       0.00000000       0.00000000       0.39424944
Na       0.00000000       0.00000000       4.23636364       0.00000000       0.00000000      -0.39424944
2
Properties=species:S:1:pos:R:3:forces:R:3 energy=-0.9291993202196592 pbc="F F F"
Na       0.00000000       0.00000000       0.00000000       0.00000000       0.00000000       0.40038198
Na       0.00000000       0.00000000       4.29515152       0.00000000       0.00000000      -0.40038198
2
Properties=species:S:1:pos:R:3:forces:R:3 energy=-0.9055935846474427 pbc="F F F"
Na       0.00000000       0.00000000       0.00000000       0.00000000       0.00000000       0.40204534
Na       0.00000000       0.00000000       4.35393939       0.00000000       0.00000000      -0.40204534
2
Properties=species:S:1:pos:R:3:forces:R:3 energy=-0.8820017584929105 pbc="F F F"
Na       0.00000000       0.00000000       0.00000000       0.00000000       0.00000000       0.40000373
Na       0.00000000       0.00000000       4.41272727       0.00000000       0.00000000      -0.40000373
2
Properties=species:S:1:pos:R:3:forces:R:3 energy=-0.8586210880246586 pbc="F F F"
Na       0.00000000       0.00000000       0.00000000       0.00000000       0.00000000       0.39497960
Na       0.00000000       0.00000000       4.47151515       0.00000000       0.00000000      -0.39497960
2
Properties=species:S:1:pos:R:3:forces:R:3 energy=-0.8356063470029179 pbc="F F F"
Na       0.00000000       0.00000000       0.00000000       0.00000000       0.00000000       0.38765749
Na       0.00000000       0.00000000       4.53030303       0.00000000       0.00000000      -0.38765749
2
Properties=species:S:1:pos:R:3:forces:R:3 energy=-0.813075509345346 pbc="F F F"
Na       0.00000000       0.00000000       0.00000000       0.00000000       0.00000000       0.37861586
Na       0.00000000       0.00000000       4.58909091       0.00000000       0.00000000      -0.37861586
2
Properties=species:S:1:pos:R:3:forces:R:3 energy=-0.7911162458180341 pbc="F F F"
Na       0.00000000       0.00000000       0.00000000       0.00000000       0.00000000       0.36827090
Na       0.00000000       0.00000000       4.64787879       0.00000000       0.00000000      -0.36827090
2
Properties=species:S:1:pos:R:3:forces:R:3 energy=-0.7697967620978402 pbc="F F F"
Na       0.00000000       0.00000000       0.00000000       0.00000000       0.00000000       0.35683608
Na       0.00000000       0.00000000       4.70666667       0.00000000       0.00000000      -0.35683608
2
Properties=species:S:1:pos:R:3:forces:R:3 energy=-0.7491804295170823 pbc="F F F"
Na       0.00000000       0.00000000       0.00000000       0.00000000       0.00000000       0.34441036
Na       0.00000000       0.00000000       4.76545455       0.00000000       0.00000000      -0.34441036
2
Properties=species:S:1:pos:R:3:forces:R:3 energy=-0.7293191285264413 pbc="F F F"
Na       0.00000000       0.00000000       0.00000000       0.00000000       0.00000000       0.33111477
Na       0.00000000       0.00000000       4.82424242       0.00000000       0.00000000      -0.33111477
2
Properties=species:S:1:pos:R:3:forces:R:3 energy=-0.7102609752121182 pbc="F F F"
Na       0.00000000       0.00000000       0.00000000       0.00000000       0.00000000       0.31726375
Na       0.00000000       0.00000000       4.88303030       0.00000000       0.00000000      -0.31726375
2
Properties=species:S:1:pos:R:3:forces:R:3 energy=-0.6920170374814825 pbc="F F F"
Na       0.00000000       0.00000000       0.00000000       0.00000000       0.00000000       0.30343327
Na       0.00000000       0.00000000       4.94181818       0.00000000       0.00000000      -0.30343327
2
Properties=species:S:1:pos:R:3:forces:R:3 energy=-0.6745686039979472 pbc="F F F"
Na       0.00000000       0.00000000       0.00000000       0.00000000       0.00000000       0.29037613
Na       0.00000000       0.00000000       5.00060606       0.00000000       0.00000000      -0.29037613
2
Properties=species:S:1:pos:R:3:forces:R:3 energy=-0.6578476742072515 pbc="F F F"
Na       0.00000000       0.00000000       0.00000000       0.00000000       0.00000000       0.27870420
Na       0.00000000       0.00000000       5.05939394       0.00000000       0.00000000      -0.27870420
2
Properties=species:S:1:pos:R:3:forces:R:3 energy=-0.6417723001400154 pbc="F F F"
Na       0.00000000       0.00000000       0.00000000       0.00000000       0.00000000       0.26839051
Na       0.00000000       0.00000000       5.11818182       0.00000000       0.00000000      -0.26839051
2
Properties=species:S:1:pos:R:3:forces:R:3 energy=-0.6262893304456395 pbc="F F F"
Na       0.00000000       0.00000000       0.00000000       0.00000000       0.00000000       0.25817344
Na       0.00000000       0.00000000       5.17696970       0.00000000       0.00000000      -0.25817344
2
Properties=species:S:1:pos:R:3:forces:R:3 energy=-0.6114712855311035 pbc="F F F"
Na       0.00000000       0.00000000       0.00000000       0.00000000       0.00000000       0.24520779
Na       0.00000000       0.00000000       5.23575758       0.00000000       0.00000000      -0.24520779
2
Properties=species:S:1:pos:R:3:forces:R:3 energy=-0.5975765850106615 pbc="F F F"
Na       0.00000000       0.00000000       0.00000000       0.00000000       0.00000000       0.22640699
Na       0.00000000       0.00000000       5.29454545       0.00000000       0.00000000      -0.22640699
2
Properties=species:S:1:pos:R:3:forces:R:3 energy=-0.5849318282844677 pbc="F F F"
Na       0.00000000       0.00000000       0.00000000       0.00000000       0.00000000       0.20390287
Na       0.00000000       0.00000000       5.35333333       0.00000000       0.00000000      -0.20390287
2
Properties=species:S:1:pos:R:3:forces:R:3 energy=-0.5734317141527577 pbc="F F F"
Na       0.00000000       0.00000000       0.00000000       0.00000000       0.00000000       0.19008103
Na       0.00000000       0.00000000       5.41212121       0.00000000       0.00000000      -0.19008103
2
Properties=species:S:1:pos:R:3:forces:R:3 energy=-0.5622453249655057 pbc="F F F"
Na       0.00000000       0.00000000       0.00000000       0.00000000       0.00000000       0.19226000
Na       0.00000000       0.00000000       5.47090909       0.00000000       0.00000000      -0.19226000
2
Properties=species:S:1:pos:R:3:forces:R:3 energy=-0.5508874032388767 pbc="F F F"
Na       0.00000000       0.00000000       0.00000000       0.00000000       0.00000000       0.19145124
Na       0.00000000       0.00000000       5.52969697       0.00000000       0.00000000      -0.19145124
2
Properties=species:S:1:pos:R:3:forces:R:3 energy=-0.5401054088616065 pbc="F F F"
Na       0.00000000       0.00000000       0.00000000       0.00000000       0.00000000       0.17309660
Na       0.00000000       0.00000000       5.58848485       0.00000000       0.00000000      -0.17309660
2
Properties=species:S:1:pos:R:3:forces:R:3 energy=-0.5305484015333762 pbc="F F F"
Na       0.00000000       0.00000000       0.00000000       0.00000000       0.00000000       0.15463452
Na       0.00000000       0.00000000       5.64727273       0.00000000       0.00000000      -0.15463452
2
Properties=species:S:1:pos:R:3:forces:R:3 energy=-0.5214132530153478 pbc="F F F"
Na       0.00000000       0.00000000       0.00000000       0.00000000       0.00000000       0.16106492
Na       0.00000000       0.00000000       5.70606061       0.00000000       0.00000000      -0.16106492
2
Properties=species:S:1:pos:R:3:forces:R:3 energy=-0.5112712252130043 pbc="F F F"
Na       0.00000000       0.00000000       0.00000000       0.00000000       0.00000000       0.18209732
Na       0.00000000       0.00000000       5.76484848       0.00000000       0.00000000      -0.18209732
2
Properties=species:S:1:pos:R:3:forces:R:3 energy=-0.5006822178086862 pbc="F F F"
Na       0.00000000       0.00000000       0.00000000       0.00000000       0.00000000       0.16967979
Na       0.00000000       0.00000000       5.82363636       0.00000000       0.00000000      -0.16967979
2
Properties=species:S:1:pos:R:3:forces:R:3 energy=-0.4922747798696354 pbc="F F F"
Na       0.00000000       0.00000000       0.00000000       0.00000000       0.00000000       0.11241993
Na       0.00000000       0.00000000       5.88242424       0.00000000       0.00000000      -0.11241993
2
Properties=species:S:1:pos:R:3:forces:R:3 energy=-0.4875428970931256 pbc="F F F"
Na       0.00000000       0.00000000       0.00000000       0.00000000       0.00000000       0.05140151
Na       0.00000000       0.00000000       5.94121212       0.00000000       0.00000000      -0.05140151
2
Properties=species:S:1:pos:R:3:forces:R:3 energy=-0.4855006331944819 pbc="F F F"
Na       0.00000000       0.00000000       0.00000000       0.00000000       0.00000000       0.02602784
Na       0.00000000       0.00000000       6.00000000       0.00000000       0.00000000      -0.02602784
