2
Properties=species:S:1:pos:R:3:forces:R:3 energy=6667.20788180677 pbc="F F F"
Nb       0.00000000       0.00000000       0.00000000       0.00000000       0.00000000 -106758.39062500
Nb       0.00000000       0.00000000       0.18000000       0.00000000       0.00000000  106758.39062500
2
Properties=species:S:1:pos:R:3:forces:R:3 energy=2845.5296591505203 pbc="F F F"
Nb       0.00000000       0.00000000       0.00000000       0.00000000       0.00000000  -37414.25781250
Nb       0.00000000       0.00000000       0.23878788       0.00000000       0.00000000   37414.25781250
2
Properties=species:S:1:pos:R:3:forces:R:3 energy=1400.6038779005203 pbc="F F F"
Nb       0.00000000       0.00000000       0.00000000       0.00000000       0.00000000  -15455.86816406
Nb       0.00000000       0.00000000       0.29757576       0.00000000       0.00000000   15455.86816406
2
Properties=species:S:1:pos:R:3:forces:R:3 energy=774.293269990364 pbc="F F F"
Nb       0.00000000       0.00000000       0.00000000       0.00000000       0.00000000   -7078.29687500
Nb       0.00000000       0.00000000       0.35636364       0.00000000       0.00000000    7078.29687500
2
Properties=species:S:1:pos:R:3:forces:R:3 energy=477.8436850420979 pbc="F F F"
Nb       0.00000000       0.00000000       0.00000000       0.00000000       0.00000000   -3480.56616211
Nb       0.00000000       0.00000000       0.41515152       0.00000000       0.00000000    3480.56616211
2
Properties=species:S:1:pos:R:3:forces:R:3 energy=328.2723349571129 pbc="F F F"
Nb       0.00000000       0.00000000       0.00000000       0.00000000       0.00000000   -1810.91967773
Nb       0.00000000       0.00000000       0.47393939       0.00000000       0.00000000    1810.91967773
2
Properties=species:S:1:pos:R:3:forces:R:3 energy=248.5613517060883 pbc="F F F"
Nb       0.00000000       0.00000000       0.00000000       0.00000000       0.00000000    -994.71734619
Nb       0.00000000       0.00000000       0.53272727       0.00000000       0.00000000     994.71734619
2
Properties=species:S:1:pos:R:3:forces:R:3 energy=203.53820418643693 pbc="F F F"
Nb       0.00000000       0.00000000       0.00000000       0.00000000       0.00000000    -582.90765381
Nb       0.00000000       0.00000000       0.59151515       0.00000000       0.00000000     582.90765381
2
Properties=species:S:1:pos:R:3:forces:R:3 energy=176.14313895484747 pbc="F F F"
Nb       0.00000000       0.00000000       0.00000000       0.00000000       0.00000000    -372.50421143
Nb       0.00000000       0.00000000       0.65030303       0.00000000       0.00000000     372.50421143
2
Properties=species:S:1:pos:R:3:forces:R:3 energy=157.70718023192694 pbc="F F F"
Nb       0.00000000       0.00000000       0.00000000       0.00000000       0.00000000    -267.48410034
Nb       0.00000000       0.00000000       0.70909091       0.00000000       0.00000000     267.48410034
2
Properties=species:S:1:pos:R:3:forces:R:3 energy=143.52743189951133 pbc="F F F"
Nb       0.00000000       0.00000000       0.00000000       0.00000000       0.00000000    -222.65852356
Nb       0.00000000       0.00000000       0.76787879       0.00000000       0.00000000     222.65852356
2
Properties=species:S:1:pos:R:3:forces:R:3 energy=130.79960322413007 pbc="F F F"
Nb       0.00000000       0.00000000       0.00000000       0.00000000       0.00000000    -215.27030945
Nb       0.00000000       0.00000000       0.82666667       0.00000000       0.00000000     215.27030945
2
Properties=species:S:1:pos:R:3:forces:R:3 energy=117.72050971551276 pbc="F F F"
Nb       0.00000000       0.00000000       0.00000000       0.00000000       0.00000000    -233.47830200
Nb       0.00000000       0.00000000       0.88545455       0.00000000       0.00000000     233.47830200
2
Properties=species:S:1:pos:R:3:forces:R:3 energy=103.28530676515287 pbc="F F F"
Nb       0.00000000       0.00000000       0.00000000       0.00000000       0.00000000    -254.53564453
Nb       0.00000000       0.00000000       0.94424242       0.00000000       0.00000000     254.53564453
2
Properties=species:S:1:pos:R:3:forces:R:3 energy=88.23218412100118 pbc="F F F"
Nb       0.00000000       0.00000000       0.00000000       0.00000000       0.00000000    -254.36219788
Nb       0.00000000       0.00000000       1.00303030       0.00000000       0.00000000     254.36219788
2
Properties=species:S:1:pos:R:3:forces:R:3 energy=73.47123706125788 pbc="F F F"
Nb       0.00000000       0.00000000       0.00000000       0.00000000       0.00000000    -249.25343323
Nb       0.00000000       0.00000000       1.06181818       0.00000000       0.00000000     249.25343323
2
Properties=species:S:1:pos:R:3:forces:R:3 energy=58.81621687631817 pbc="F F F"
Nb       0.00000000       0.00000000       0.00000000       0.00000000       0.00000000    -248.52412415
Nb       0.00000000       0.00000000       1.12060606       0.00000000       0.00000000     248.52412415
2
Properties=species:S:1:pos:R:3:forces:R:3 energy=44.48453852350941 pbc="F F F"
Nb       0.00000000       0.00000000       0.00000000       0.00000000       0.00000000    -236.81173706
Nb       0.00000000       0.00000000       1.17939394       0.00000000       0.00000000     236.81173706
2
Properties=species:S:1:pos:R:3:forces:R:3 energy=31.193307976016055 pbc="F F F"
Nb       0.00000000       0.00000000       0.00000000       0.00000000       0.00000000    -213.37187195
Nb       0.00000000       0.00000000       1.23818182       0.00000000       0.00000000     213.37187195
2
Properties=species:S:1:pos:R:3:forces:R:3 energy=19.772519568546794 pbc="F F F"
Nb       0.00000000       0.00000000       0.00000000       0.00000000       0.00000000    -171.43203735
Nb       0.00000000       0.00000000       1.29696970       0.00000000       0.00000000     171.43203735
2
Properties=species:S:1:pos:R:3:forces:R:3 energy=11.242575401472326 pbc="F F F"
Nb       0.00000000       0.00000000       0.00000000       0.00000000       0.00000000    -119.26135254
Nb       0.00000000       0.00000000       1.35575758       0.00000000       0.00000000     119.26135254
2
Properties=species:S:1:pos:R:3:forces:R:3 energy=5.462061969866667 pbc="F F F"
Nb       0.00000000       0.00000000       0.00000000       0.00000000       0.00000000     -81.21876526
Nb       0.00000000       0.00000000       1.41454545       0.00000000       0.00000000      81.21876526
2
Properties=species:S:1:pos:R:3:forces:R:3 energy=1.298687688982838 pbc="F F F"
Nb       0.00000000       0.00000000       0.00000000       0.00000000       0.00000000     -62.52167511
Nb       0.00000000       0.00000000       1.47333333       0.00000000       0.00000000      62.52167511
2
Properties=species:S:1:pos:R:3:forces:R:3 energy=-1.996864878129512 pbc="F F F"
Nb       0.00000000       0.00000000       0.00000000       0.00000000       0.00000000     -49.81347275
Nb       0.00000000       0.00000000       1.53212121       0.00000000       0.00000000      49.81347275
2
Properties=species:S:1:pos:R:3:forces:R:3 energy=-4.579691951938119 pbc="F F F"
Nb       0.00000000       0.00000000       0.00000000       0.00000000       0.00000000     -38.40890884
Nb       0.00000000       0.00000000       1.59090909       0.00000000       0.00000000      38.40890884
2
Properties=species:S:1:pos:R:3:forces:R:3 energy=-6.568767449835132 pbc="F F F"
Nb       0.00000000       0.00000000       0.00000000       0.00000000       0.00000000     -29.73626709
Nb       0.00000000       0.00000000       1.64969697       0.00000000       0.00000000      29.73626709
2
Properties=species:S:1:pos:R:3:forces:R:3 energy=-8.118562916604109 pbc="F F F"
Nb       0.00000000       0.00000000       0.00000000       0.00000000       0.00000000     -23.22374725
Nb       0.00000000       0.00000000       1.70848485       0.00000000       0.00000000      23.22374725
2
Properties=species:S:1:pos:R:3:forces:R:3 energy=-9.315633415049557 pbc="F F F"
Nb       0.00000000       0.00000000       0.00000000       0.00000000       0.00000000     -17.57973480
Nb       0.00000000       0.00000000       1.76727273       0.00000000       0.00000000      17.57973480
2
Properties=species:S:1:pos:R:3:forces:R:3 energy=-10.193892171062897 pbc="F F F"
Nb       0.00000000       0.00000000       0.00000000       0.00000000       0.00000000     -12.38983154
Nb       0.00000000       0.00000000       1.82606061       0.00000000       0.00000000      12.38983154
2
Properties=species:S:1:pos:R:3:forces:R:3 energy=-10.786970046910161 pbc="F F F"
Nb       0.00000000       0.00000000       0.00000000       0.00000000       0.00000000      -7.93939495
Nb       0.00000000       0.00000000       1.88484848       0.00000000       0.00000000       7.93939495
2
Properties=species:S:1:pos:R:3:forces:R:3 energy=-11.14651758106588 pbc="F F F"
Nb       0.00000000       0.00000000       0.00000000       0.00000000       0.00000000      -4.45401001
Nb       0.00000000       0.00000000       1.94363636       0.00000000       0.00000000       4.45401001
2
Properties=species:S:1:pos:R:3:forces:R:3 energy=-11.328101244467561 pbc="F F F"
Nb       0.00000000       0.00000000       0.00000000       0.00000000       0.00000000      -1.85511410
Nb       0.00000000       0.00000000       2.00242424       0.00000000       0.00000000       1.85511410
2
Properties=species:S:1:pos:R:3:forces:R:3 energy=-11.377918731945588 pbc="F F F"
Nb       0.00000000       0.00000000       0.00000000       0.00000000       0.00000000       0.06532663
Nb       0.00000000       0.00000000       2.06121212       0.00000000       0.00000000      -0.06532663
2
Properties=species:S:1:pos:R:3:forces:R:3 energy=-11.329658835817137 pbc="F F F"
Nb       0.00000000       0.00000000       0.00000000       0.00000000       0.00000000       1.51261640
Nb       0.00000000       0.00000000       2.12000000       0.00000000       0.00000000      -1.51261640
2
Properties=species:S:1:pos:R:3:forces:R:3 energy=-11.206214492048579 pbc="F F F"
Nb       0.00000000       0.00000000       0.00000000       0.00000000       0.00000000       2.64419889
Nb       0.00000000       0.00000000       2.17878788       0.00000000       0.00000000      -2.64419889
2
Properties=species:S:1:pos:R:3:forces:R:3 energy=-11.023096525499307 pbc="F F F"
Nb       0.00000000       0.00000000       0.00000000       0.00000000       0.00000000       3.55264235
Nb       0.00000000       0.00000000       2.23757576       0.00000000       0.00000000      -3.55264235
2
Properties=species:S:1:pos:R:3:forces:R:3 energy=-10.792216840929022 pbc="F F F"
Nb       0.00000000       0.00000000       0.00000000       0.00000000       0.00000000       4.27096462
Nb       0.00000000       0.00000000       2.29636364       0.00000000       0.00000000      -4.27096462
2
Properties=species:S:1:pos:R:3:forces:R:3 energy=-10.524602728830022 pbc="F F F"
Nb       0.00000000       0.00000000       0.00000000       0.00000000       0.00000000       4.80228853
Nb       0.00000000       0.00000000       2.35515152       0.00000000       0.00000000      -4.80228853
2
Properties=species:S:1:pos:R:3:forces:R:3 energy=-10.231180569983676 pbc="F F F"
Nb       0.00000000       0.00000000       0.00000000       0.00000000       0.00000000       5.15050077
Nb       0.00000000       0.00000000       2.41393939       0.00000000       0.00000000      -5.15050077
2
Properties=species:S:1:pos:R:3:forces:R:3 energy=-9.92233495551053 pbc="F F F"
Nb       0.00000000       0.00000000       0.00000000       0.00000000       0.00000000       5.33002853
Nb       0.00000000       0.00000000       2.47272727       0.00000000       0.00000000      -5.33002853
2
Properties=species:S:1:pos:R:3:forces:R:3 energy=-9.607445799391362 pbc="F F F"
Nb       0.00000000       0.00000000       0.00000000       0.00000000       0.00000000       5.35901451
Nb       0.00000000       0.00000000       2.53151515       0.00000000       0.00000000      -5.35901451
2
Properties=species:S:1:pos:R:3:forces:R:3 energy=-9.294884019286954 pbc="F F F"
Nb       0.00000000       0.00000000       0.00000000       0.00000000       0.00000000       5.25347805
Nb       0.00000000       0.00000000       2.59030303       0.00000000       0.00000000      -5.25347805
2
Properties=species:S:1:pos:R:3:forces:R:3 energy=-8.992004869202388 pbc="F F F"
Nb       0.00000000       0.00000000       0.00000000       0.00000000       0.00000000       5.03421593
Nb       0.00000000       0.00000000       2.64909091       0.00000000       0.00000000      -5.03421593
2
Properties=species:S:1:pos:R:3:forces:R:3 energy=-8.704475851240955 pbc="F F F"
Nb       0.00000000       0.00000000       0.00000000       0.00000000       0.00000000       4.73919010
Nb       0.00000000       0.00000000       2.70787879       0.00000000       0.00000000      -4.73919010
2
Properties=species:S:1:pos:R:3:forces:R:3 energy=-8.43531521689772 pbc="F F F"
Nb       0.00000000       0.00000000       0.00000000       0.00000000       0.00000000       4.41662741
Nb       0.00000000       0.00000000       2.76666667       0.00000000       0.00000000      -4.41662741
2
Properties=species:S:1:pos:R:3:forces:R:3 energy=-8.185168572034614 pbc="F F F"
Nb       0.00000000       0.00000000       0.00000000       0.00000000       0.00000000       4.09350061
Nb       0.00000000       0.00000000       2.82545455       0.00000000       0.00000000      -4.09350061
2
Properties=species:S:1:pos:R:3:forces:R:3 energy=-7.954244133190964 pbc="F F F"
Nb       0.00000000       0.00000000       0.00000000       0.00000000       0.00000000       3.75840473
Nb       0.00000000       0.00000000       2.88424242       0.00000000       0.00000000      -3.75840473
2
Properties=species:S:1:pos:R:3:forces:R:3 energy=-7.743988034427021 pbc="F F F"
Nb       0.00000000       0.00000000       0.00000000       0.00000000       0.00000000       3.38784027
Nb       0.00000000       0.00000000       2.94303030       0.00000000       0.00000000      -3.38784027
2
Properties=species:S:1:pos:R:3:forces:R:3 energy=-7.556527233805855 pbc="F F F"
Nb       0.00000000       0.00000000       0.00000000       0.00000000       0.00000000       2.98763824
Nb       0.00000000       0.00000000       3.00181818       0.00000000       0.00000000      -2.98763824
2
Properties=species:S:1:pos:R:3:forces:R:3 energy=-7.392390162500493 pbc="F F F"
Nb       0.00000000       0.00000000       0.00000000       0.00000000       0.00000000       2.60452867
Nb       0.00000000       0.00000000       3.06060606       0.00000000       0.00000000      -2.60452867
2
Properties=species:S:1:pos:R:3:forces:R:3 energy=-7.2487474475891975 pbc="F F F"
Nb       0.00000000       0.00000000       0.00000000       0.00000000       0.00000000       2.29962158
Nb       0.00000000       0.00000000       3.11939394       0.00000000       0.00000000      -2.29962158
2
Properties=species:S:1:pos:R:3:forces:R:3 energy=-7.119753987450527 pbc="F F F"
Nb       0.00000000       0.00000000       0.00000000       0.00000000       0.00000000       2.10810709
Nb       0.00000000       0.00000000       3.17818182       0.00000000       0.00000000      -2.10810709
2
Properties=species:S:1:pos:R:3:forces:R:3 energy=-6.998890140133578 pbc="F F F"
Nb       0.00000000       0.00000000       0.00000000       0.00000000       0.00000000       2.01722527
Nb       0.00000000       0.00000000       3.23696970       0.00000000       0.00000000      -2.01722527
2
Properties=species:S:1:pos:R:3:forces:R:3 energy=-6.8814780770641235 pbc="F F F"
Nb       0.00000000       0.00000000       0.00000000       0.00000000       0.00000000       1.98264587
Nb       0.00000000       0.00000000       3.29575758       0.00000000       0.00000000      -1.98264587
2
Properties=species:S:1:pos:R:3:forces:R:3 energy=-6.765508886183467 pbc="F F F"
Nb       0.00000000       0.00000000       0.00000000       0.00000000       0.00000000       1.96254134
Nb       0.00000000       0.00000000       3.35454545       0.00000000       0.00000000      -1.96254134
2
Properties=species:S:1:pos:R:3:forces:R:3 energy=-6.650921378786197 pbc="F F F"
Nb       0.00000000       0.00000000       0.00000000       0.00000000       0.00000000       1.93313146
Nb       0.00000000       0.00000000       3.41333333       0.00000000       0.00000000      -1.93313146
2
Properties=species:S:1:pos:R:3:forces:R:3 energy=-6.53858766431857 pbc="F F F"
Nb       0.00000000       0.00000000       0.00000000       0.00000000       0.00000000       1.88521206
Nb       0.00000000       0.00000000       3.47212121       0.00000000       0.00000000      -1.88521206
2
Properties=species:S:1:pos:R:3:forces:R:3 energy=-6.429646844519795 pbc="F F F"
Nb       0.00000000       0.00000000       0.00000000       0.00000000       0.00000000       1.81811929
Nb       0.00000000       0.00000000       3.53090909       0.00000000       0.00000000      -1.81811929
2
Properties=species:S:1:pos:R:3:forces:R:3 energy=-6.325101255813569 pbc="F F F"
Nb       0.00000000       0.00000000       0.00000000       0.00000000       0.00000000       1.73683989
Nb       0.00000000       0.00000000       3.58969697       0.00000000       0.00000000      -1.73683989
2
Properties=species:S:1:pos:R:3:forces:R:3 energy=-6.225555934098474 pbc="F F F"
Nb       0.00000000       0.00000000       0.00000000       0.00000000       0.00000000       1.64941704
Nb       0.00000000       0.00000000       3.64848485       0.00000000       0.00000000      -1.64941704
2
Properties=species:S:1:pos:R:3:forces:R:3 energy=-6.1311592391524945 pbc="F F F"
Nb       0.00000000       0.00000000       0.00000000       0.00000000       0.00000000       1.56236839
Nb       0.00000000       0.00000000       3.70727273       0.00000000       0.00000000      -1.56236839
2
Properties=species:S:1:pos:R:3:forces:R:3 energy=-6.04182670878632 pbc="F F F"
Nb       0.00000000       0.00000000       0.00000000       0.00000000       0.00000000       1.47672832
Nb       0.00000000       0.00000000       3.76606061       0.00000000       0.00000000      -1.47672832
2
Properties=species:S:1:pos:R:3:forces:R:3 energy=-5.9575863830214555 pbc="F F F"
Nb       0.00000000       0.00000000       0.00000000       0.00000000       0.00000000       1.38822782
Nb       0.00000000       0.00000000       3.82484848       0.00000000       0.00000000      -1.38822782
2
Properties=species:S:1:pos:R:3:forces:R:3 energy=-5.8787756171396195 pbc="F F F"
Nb       0.00000000       0.00000000       0.00000000       0.00000000       0.00000000       1.29112172
Nb       0.00000000       0.00000000       3.88363636       0.00000000       0.00000000      -1.29112172
2
Properties=species:S:1:pos:R:3:forces:R:3 energy=-5.80601360719741 pbc="F F F"
Nb       0.00000000       0.00000000       0.00000000       0.00000000       0.00000000       1.18230808
Nb       0.00000000       0.00000000       3.94242424       0.00000000       0.00000000      -1.18230808
2
Properties=species:S:1:pos:R:3:forces:R:3 energy=-5.7399729010003195 pbc="F F F"
Nb       0.00000000       0.00000000       0.00000000       0.00000000       0.00000000       1.06306088
Nb       0.00000000       0.00000000       4.00121212       0.00000000       0.00000000      -1.06306088
2
Properties=species:S:1:pos:R:3:forces:R:3 energy=-5.681133318450879 pbc="F F F"
Nb       0.00000000       0.00000000       0.00000000       0.00000000       0.00000000       0.93830413
Nb       0.00000000       0.00000000       4.06000000       0.00000000       0.00000000      -0.93830413
2
Properties=species:S:1:pos:R:3:forces:R:3 energy=-5.629627735077747 pbc="F F F"
Nb       0.00000000       0.00000000       0.00000000       0.00000000       0.00000000       0.81474787
Nb       0.00000000       0.00000000       4.11878788       0.00000000       0.00000000      -0.81474787
2
Properties=species:S:1:pos:R:3:forces:R:3 energy=-5.58518287186472 pbc="F F F"
Nb       0.00000000       0.00000000       0.00000000       0.00000000       0.00000000       0.69910049
Nb       0.00000000       0.00000000       4.17757576       0.00000000       0.00000000      -0.69910049
2
Properties=species:S:1:pos:R:3:forces:R:3 energy=-5.547162731781635 pbc="F F F"
Nb       0.00000000       0.00000000       0.00000000       0.00000000       0.00000000       0.59700406
Nb       0.00000000       0.00000000       4.23636364       0.00000000       0.00000000      -0.59700406
2
Properties=species:S:1:pos:R:3:forces:R:3 energy=-5.51464350123208 pbc="F F F"
Nb       0.00000000       0.00000000       0.00000000       0.00000000       0.00000000       0.51245588
Nb       0.00000000       0.00000000       4.29515152       0.00000000       0.00000000      -0.51245588
2
Properties=species:S:1:pos:R:3:forces:R:3 energy=-5.486525594114274 pbc="F F F"
Nb       0.00000000       0.00000000       0.00000000       0.00000000       0.00000000       0.44750386
Nb       0.00000000       0.00000000       4.35393939       0.00000000       0.00000000      -0.44750386
2
Properties=species:S:1:pos:R:3:forces:R:3 energy=-5.461645976314146 pbc="F F F"
Nb       0.00000000       0.00000000       0.00000000       0.00000000       0.00000000       0.40202546
Nb       0.00000000       0.00000000       4.41272727       0.00000000       0.00000000      -0.40202546
2
Properties=species:S:1:pos:R:3:forces:R:3 energy=-5.4389174908545534 pbc="F F F"
Nb       0.00000000       0.00000000       0.00000000       0.00000000       0.00000000       0.37380213
Nb       0.00000000       0.00000000       4.47151515       0.00000000       0.00000000      -0.37380213
2
Properties=species:S:1:pos:R:3:forces:R:3 energy=-5.417432993793286 pbc="F F F"
Nb       0.00000000       0.00000000       0.00000000       0.00000000       0.00000000       0.35891783
Nb       0.00000000       0.00000000       4.53030303       0.00000000       0.00000000      -0.35891783
2
Properties=species:S:1:pos:R:3:forces:R:3 energy=-5.396551598392258 pbc="F F F"
Nb       0.00000000       0.00000000       0.00000000       0.00000000       0.00000000       0.35247970
Nb       0.00000000       0.00000000       4.58909091       0.00000000       0.00000000      -0.35247970
2
Properties=species:S:1:pos:R:3:forces:R:3 energy=-5.375923858787877 pbc="F F F"
Nb       0.00000000       0.00000000       0.00000000       0.00000000       0.00000000       0.34948277
Nb       0.00000000       0.00000000       4.64787879       0.00000000       0.00000000      -0.34948277
2
Properties=species:S:1:pos:R:3:forces:R:3 energy=-5.355478947736758 pbc="F F F"
Nb       0.00000000       0.00000000       0.00000000       0.00000000       0.00000000       0.34559685
Nb       0.00000000       0.00000000       4.70666667       0.00000000       0.00000000      -0.34559685
2
Properties=species:S:1:pos:R:3:forces:R:3 energy=-5.335368446851858 pbc="F F F"
Nb       0.00000000       0.00000000       0.00000000       0.00000000       0.00000000       0.33776331
Nb       0.00000000       0.00000000       4.76545455       0.00000000       0.00000000      -0.33776331
2
Properties=species:S:1:pos:R:3:forces:R:3 energy=-5.315871616062931 pbc="F F F"
Nb       0.00000000       0.00000000       0.00000000       0.00000000       0.00000000       0.32456222
Nb       0.00000000       0.00000000       4.82424242       0.00000000       0.00000000      -0.32456222
2
Properties=species:S:1:pos:R:3:forces:R:3 energy=-5.297308984720594 pbc="F F F"
Nb       0.00000000       0.00000000       0.00000000       0.00000000       0.00000000       0.30628806
Nb       0.00000000       0.00000000       4.88303030       0.00000000       0.00000000      -0.30628806
2
Properties=species:S:1:pos:R:3:forces:R:3 energy=-5.27992616338466 pbc="F F F"
Nb       0.00000000       0.00000000       0.00000000       0.00000000       0.00000000       0.28469977
Nb       0.00000000       0.00000000       4.94181818       0.00000000       0.00000000      -0.28469977
2
Properties=species:S:1:pos:R:3:forces:R:3 energy=-5.263846109423169 pbc="F F F"
Nb       0.00000000       0.00000000       0.00000000       0.00000000       0.00000000       0.26250201
Nb       0.00000000       0.00000000       5.00060606       0.00000000       0.00000000      -0.26250201
2
Properties=species:S:1:pos:R:3:forces:R:3 energy=-5.249016649582403 pbc="F F F"
Nb       0.00000000       0.00000000       0.00000000       0.00000000       0.00000000       0.24258122
Nb       0.00000000       0.00000000       5.05939394       0.00000000       0.00000000      -0.24258122
2
Properties=species:S:1:pos:R:3:forces:R:3 energy=-5.235232085042666 pbc="F F F"
Nb       0.00000000       0.00000000       0.00000000       0.00000000       0.00000000       0.22732979
Nb       0.00000000       0.00000000       5.11818182       0.00000000       0.00000000      -0.22732979
2
Properties=species:S:1:pos:R:3:forces:R:3 energy=-5.22217140174738 pbc="F F F"
Nb       0.00000000       0.00000000       0.00000000       0.00000000       0.00000000       0.21803279
Nb       0.00000000       0.00000000       5.17696970       0.00000000       0.00000000      -0.21803279
2
Properties=species:S:1:pos:R:3:forces:R:3 energy=-5.20948406941334 pbc="F F F"
Nb       0.00000000       0.00000000       0.00000000       0.00000000       0.00000000       0.21446399
Nb       0.00000000       0.00000000       5.23575758       0.00000000       0.00000000      -0.21446399
2
Properties=species:S:1:pos:R:3:forces:R:3 energy=-5.196875751841948 pbc="F F F"
Nb       0.00000000       0.00000000       0.00000000       0.00000000       0.00000000       0.21496385
Nb       0.00000000       0.00000000       5.29454545       0.00000000       0.00000000      -0.21496385
2
Properties=species:S:1:pos:R:3:forces:R:3 energy=-5.18417661184226 pbc="F F F"
Nb       0.00000000       0.00000000       0.00000000       0.00000000       0.00000000       0.21699895
Nb       0.00000000       0.00000000       5.35333333       0.00000000       0.00000000      -0.21699895
2
Properties=species:S:1:pos:R:3:forces:R:3 energy=-5.171457611980252 pbc="F F F"
Nb       0.00000000       0.00000000       0.00000000       0.00000000       0.00000000       0.21391715
Nb       0.00000000       0.00000000       5.41212121       0.00000000       0.00000000      -0.21391715
2
Properties=species:S:1:pos:R:3:forces:R:3 energy=-5.159321874753767 pbc="F F F"
Nb       0.00000000       0.00000000       0.00000000       0.00000000       0.00000000       0.19654660
Nb       0.00000000       0.00000000       5.47090909       0.00000000       0.00000000      -0.19654660
2
Properties=species:S:1:pos:R:3:forces:R:3 energy=-5.148478036880995 pbc="F F F"
Nb       0.00000000       0.00000000       0.00000000       0.00000000       0.00000000       0.17234483
Nb       0.00000000       0.00000000       5.52969697       0.00000000       0.00000000      -0.17234483
2
Properties=species:S:1:pos:R:3:forces:R:3 energy=-5.139050319785524 pbc="F F F"
Nb       0.00000000       0.00000000       0.00000000       0.00000000       0.00000000       0.14819369
Nb       0.00000000       0.00000000       5.58848485       0.00000000       0.00000000      -0.14819369
2
Properties=species:S:1:pos:R:3:forces:R:3 energy=-5.131081134968022 pbc="F F F"
Nb       0.00000000       0.00000000       0.00000000       0.00000000       0.00000000       0.12330198
Nb       0.00000000       0.00000000       5.64727273       0.00000000       0.00000000      -0.12330198
2
Properties=species:S:1:pos:R:3:forces:R:3 energy=-5.124394339447782 pbc="F F F"
Nb       0.00000000       0.00000000       0.00000000       0.00000000       0.00000000       0.10706629
Nb       0.00000000       0.00000000       5.70606061       0.00000000       0.00000000      -0.10706629
2
Properties=species:S:1:pos:R:3:forces:R:3 energy=-5.117935884014528 pbc="F F F"
Nb       0.00000000       0.00000000       0.00000000       0.00000000       0.00000000       0.11746658
Nb       0.00000000       0.00000000       5.76484848       0.00000000       0.00000000      -0.11746658
2
Properties=species:S:1:pos:R:3:forces:R:3 energy=-5.110395646896578 pbc="F F F"
Nb       0.00000000       0.00000000       0.00000000       0.00000000       0.00000000       0.13506919
Nb       0.00000000       0.00000000       5.82363636       0.00000000       0.00000000      -0.13506919
2
Properties=species:S:1:pos:R:3:forces:R:3 energy=-5.103067528378317 pbc="F F F"
Nb       0.00000000       0.00000000       0.00000000       0.00000000       0.00000000       0.10612938
Nb       0.00000000       0.00000000       5.88242424       0.00000000       0.00000000      -0.10612938
2
Properties=species:S:1:pos:R:3:forces:R:3 energy=-5.098465388934916 pbc="F F F"
Nb       0.00000000       0.00000000       0.00000000       0.00000000       0.00000000       0.05064780
Nb       0.00000000       0.00000000       5.94121212       0.00000000       0.00000000      -0.05064780
2
Properties=species:S:1:pos:R:3:forces:R:3 energy=-5.096487775108989 pbc="F F F"
Nb       0.00000000       0.00000000       0.00000000       0.00000000       0.00000000       0.02468648
Nb       0.00000000       0.00000000       6.00000000       0.00000000       0.00000000      -0.02468648
