2
Properties=species:S:1:pos:R:3:forces:R:3 energy=1621.6038538367734 pbc="F F F"
P        0.00000000       0.00000000       0.00000000       0.00000000       0.00000000  -21847.59570312
P        0.00000000       0.00000000       0.18000000       0.00000000       0.00000000   21847.59570312
2
Properties=species:S:1:pos:R:3:forces:R:3 energy=808.6033045203671 pbc="F F F"
P        0.00000000       0.00000000       0.00000000       0.00000000       0.00000000   -8374.83789062
P        0.00000000       0.00000000       0.23878788       0.00000000       0.00000000    8374.83789062
2
Properties=species:S:1:pos:R:3:forces:R:3 energy=473.2841516883359 pbc="F F F"
P        0.00000000       0.00000000       0.00000000       0.00000000       0.00000000   -3765.96899414
P        0.00000000       0.00000000       0.29757576       0.00000000       0.00000000    3765.96899414
2
Properties=species:S:1:pos:R:3:forces:R:3 energy=314.1830774790894 pbc="F F F"
P        0.00000000       0.00000000       0.00000000       0.00000000       0.00000000   -1904.67211914
P        0.00000000       0.00000000       0.35636364       0.00000000       0.00000000    1904.67211914
2
Properties=species:S:1:pos:R:3:forces:R:3 energy=229.7677485154363 pbc="F F F"
P        0.00000000       0.00000000       0.00000000       0.00000000       0.00000000   -1073.29272461
P        0.00000000       0.00000000       0.41515152       0.00000000       0.00000000    1073.29272461
2
Properties=species:S:1:pos:R:3:forces:R:3 energy=179.4999110290361 pbc="F F F"
P        0.00000000       0.00000000       0.00000000       0.00000000       0.00000000    -684.98089600
P        0.00000000       0.00000000       0.47393939       0.00000000       0.00000000     684.98089600
2
Properties=species:S:1:pos:R:3:forces:R:3 energy=145.33114888852913 pbc="F F F"
P        0.00000000       0.00000000       0.00000000       0.00000000       0.00000000    -499.38003540
P        0.00000000       0.00000000       0.53272727       0.00000000       0.00000000     499.38003540
2
Properties=species:S:1:pos:R:3:forces:R:3 energy=119.12594881042604 pbc="F F F"
P        0.00000000       0.00000000       0.00000000       0.00000000       0.00000000    -399.79620361
P        0.00000000       0.00000000       0.59151515       0.00000000       0.00000000     399.79620361
2
Properties=species:S:1:pos:R:3:forces:R:3 energy=97.98123464502662 pbc="F F F"
P        0.00000000       0.00000000       0.00000000       0.00000000       0.00000000    -320.44897461
P        0.00000000       0.00000000       0.65030303       0.00000000       0.00000000     320.44897461
2
Properties=species:S:1:pos:R:3:forces:R:3 energy=80.73379079630551 pbc="F F F"
P        0.00000000       0.00000000       0.00000000       0.00000000       0.00000000    -274.75335693
P        0.00000000       0.00000000       0.70909091       0.00000000       0.00000000     274.75335693
2
Properties=species:S:1:pos:R:3:forces:R:3 energy=65.81005468337409 pbc="F F F"
P        0.00000000       0.00000000       0.00000000       0.00000000       0.00000000    -227.57717896
P        0.00000000       0.00000000       0.76787879       0.00000000       0.00000000     227.57717896
2
Properties=species:S:1:pos:R:3:forces:R:3 energy=54.25122510322539 pbc="F F F"
P        0.00000000       0.00000000       0.00000000       0.00000000       0.00000000    -167.31436157
P        0.00000000       0.00000000       0.82666667       0.00000000       0.00000000     167.31436157
2
Properties=species:S:1:pos:R:3:forces:R:3 energy=45.665567051815 pbc="F F F"
P        0.00000000       0.00000000       0.00000000       0.00000000       0.00000000    -128.44601440
P        0.00000000       0.00000000       0.88545455       0.00000000       0.00000000     128.44601440
2
Properties=species:S:1:pos:R:3:forces:R:3 energy=38.83431154752345 pbc="F F F"
P        0.00000000       0.00000000       0.00000000       0.00000000       0.00000000    -107.73368073
P        0.00000000       0.00000000       0.94424242       0.00000000       0.00000000     107.73368073
2
Properties=species:S:1:pos:R:3:forces:R:3 energy=32.604214698508926 pbc="F F F"
P        0.00000000       0.00000000       0.00000000       0.00000000       0.00000000    -105.34252167
P        0.00000000       0.00000000       1.00303030       0.00000000       0.00000000     105.34252167
2
Properties=species:S:1:pos:R:3:forces:R:3 energy=26.375930483266938 pbc="F F F"
P        0.00000000       0.00000000       0.00000000       0.00000000       0.00000000    -107.20824432
P        0.00000000       0.00000000       1.06181818       0.00000000       0.00000000     107.20824432
2
Properties=species:S:1:pos:R:3:forces:R:3 energy=20.074826434542203 pbc="F F F"
P        0.00000000       0.00000000       0.00000000       0.00000000       0.00000000    -105.35114288
P        0.00000000       0.00000000       1.12060606       0.00000000       0.00000000     105.35114288
2
Properties=species:S:1:pos:R:3:forces:R:3 energy=14.124341787289891 pbc="F F F"
P        0.00000000       0.00000000       0.00000000       0.00000000       0.00000000     -96.89331818
P        0.00000000       0.00000000       1.17939394       0.00000000       0.00000000      96.89331818
2
Properties=species:S:1:pos:R:3:forces:R:3 energy=8.744697354396028 pbc="F F F"
P        0.00000000       0.00000000       0.00000000       0.00000000       0.00000000     -84.78530884
P        0.00000000       0.00000000       1.23818182       0.00000000       0.00000000      84.78530884
2
Properties=species:S:1:pos:R:3:forces:R:3 energy=4.3183587898490785 pbc="F F F"
P        0.00000000       0.00000000       0.00000000       0.00000000       0.00000000     -65.12939453
P        0.00000000       0.00000000       1.29696970       0.00000000       0.00000000      65.12939453
2
Properties=species:S:1:pos:R:3:forces:R:3 energy=1.042968040537434 pbc="F F F"
P        0.00000000       0.00000000       0.00000000       0.00000000       0.00000000     -47.42036057
P        0.00000000       0.00000000       1.35575758       0.00000000       0.00000000      47.42036057
2
Properties=species:S:1:pos:R:3:forces:R:3 energy=-1.4020101446798876 pbc="F F F"
P        0.00000000       0.00000000       0.00000000       0.00000000       0.00000000     -36.80427551
P        0.00000000       0.00000000       1.41454545       0.00000000       0.00000000      36.80427551
2
Properties=species:S:1:pos:R:3:forces:R:3 energy=-3.3646814713343725 pbc="F F F"
P        0.00000000       0.00000000       0.00000000       0.00000000       0.00000000     -30.31171227
P        0.00000000       0.00000000       1.47333333       0.00000000       0.00000000      30.31171227
2
Properties=species:S:1:pos:R:3:forces:R:3 energy=-4.981905536281484 pbc="F F F"
P        0.00000000       0.00000000       0.00000000       0.00000000       0.00000000     -24.73523903
P        0.00000000       0.00000000       1.53212121       0.00000000       0.00000000      24.73523903
2
Properties=species:S:1:pos:R:3:forces:R:3 energy=-6.276141724628522 pbc="F F F"
P        0.00000000       0.00000000       0.00000000       0.00000000       0.00000000     -19.35111237
P        0.00000000       0.00000000       1.59090909       0.00000000       0.00000000      19.35111237
2
Properties=species:S:1:pos:R:3:forces:R:3 energy=-7.26690560076235 pbc="F F F"
P        0.00000000       0.00000000       0.00000000       0.00000000       0.00000000     -14.45369339
P        0.00000000       0.00000000       1.64969697       0.00000000       0.00000000      14.45369339
2
Properties=species:S:1:pos:R:3:forces:R:3 energy=-7.987154892936561 pbc="F F F"
P        0.00000000       0.00000000       0.00000000       0.00000000       0.00000000     -10.14512444
P        0.00000000       0.00000000       1.70848485       0.00000000       0.00000000      10.14512444
2
Properties=species:S:1:pos:R:3:forces:R:3 energy=-8.47077137012526 pbc="F F F"
P        0.00000000       0.00000000       0.00000000       0.00000000       0.00000000      -6.40281820
P        0.00000000       0.00000000       1.76727273       0.00000000       0.00000000       6.40281820
2
Properties=species:S:1:pos:R:3:forces:R:3 energy=-8.751550379735319 pbc="F F F"
P        0.00000000       0.00000000       0.00000000       0.00000000       0.00000000      -3.25165105
P        0.00000000       0.00000000       1.82606061       0.00000000       0.00000000       3.25165105
2
Properties=species:S:1:pos:R:3:forces:R:3 energy=-8.865329919182109 pbc="F F F"
P        0.00000000       0.00000000       0.00000000       0.00000000       0.00000000      -0.72299403
P        0.00000000       0.00000000       1.88484848       0.00000000       0.00000000       0.72299403
2
Properties=species:S:1:pos:R:3:forces:R:3 energy=-8.848291251614112 pbc="F F F"
P        0.00000000       0.00000000       0.00000000       0.00000000       0.00000000       1.20910907
P        0.00000000       0.00000000       1.94363636       0.00000000       0.00000000      -1.20910907
2
Properties=species:S:1:pos:R:3:forces:R:3 energy=-8.733119349758619 pbc="F F F"
P        0.00000000       0.00000000       0.00000000       0.00000000       0.00000000       2.63447571
P        0.00000000       0.00000000       2.00242424       0.00000000       0.00000000      -2.63447571
2
Properties=species:S:1:pos:R:3:forces:R:3 energy=-8.546082681808457 pbc="F F F"
P        0.00000000       0.00000000       0.00000000       0.00000000       0.00000000       3.67449117
P        0.00000000       0.00000000       2.06121212       0.00000000       0.00000000      -3.67449117
2
Properties=species:S:1:pos:R:3:forces:R:3 energy=-8.306444068777644 pbc="F F F"
P        0.00000000       0.00000000       0.00000000       0.00000000       0.00000000       4.43992329
P        0.00000000       0.00000000       2.12000000       0.00000000       0.00000000      -4.43992329
2
Properties=species:S:1:pos:R:3:forces:R:3 energy=-8.027982507955887 pbc="F F F"
P        0.00000000       0.00000000       0.00000000       0.00000000       0.00000000       5.00372362
P        0.00000000       0.00000000       2.17878788       0.00000000       0.00000000      -5.00372362
2
Properties=species:S:1:pos:R:3:forces:R:3 energy=-7.721381382473127 pbc="F F F"
P        0.00000000       0.00000000       0.00000000       0.00000000       0.00000000       5.40085602
P        0.00000000       0.00000000       2.23757576       0.00000000       0.00000000      -5.40085602
2
Properties=species:S:1:pos:R:3:forces:R:3 energy=-7.395931717292998 pbc="F F F"
P        0.00000000       0.00000000       0.00000000       0.00000000       0.00000000       5.64693928
P        0.00000000       0.00000000       2.29636364       0.00000000       0.00000000      -5.64693928
2
Properties=species:S:1:pos:R:3:forces:R:3 energy=-7.060150172841144 pbc="F F F"
P        0.00000000       0.00000000       0.00000000       0.00000000       0.00000000       5.75460529
P        0.00000000       0.00000000       2.35515152       0.00000000       0.00000000      -5.75460529
2
Properties=species:S:1:pos:R:3:forces:R:3 energy=-6.721825428090273 pbc="F F F"
P        0.00000000       0.00000000       0.00000000       0.00000000       0.00000000       5.73471308
P        0.00000000       0.00000000       2.41393939       0.00000000       0.00000000      -5.73471308
2
Properties=species:S:1:pos:R:3:forces:R:3 energy=-6.388250701199309 pbc="F F F"
P        0.00000000       0.00000000       0.00000000       0.00000000       0.00000000       5.59407854
P        0.00000000       0.00000000       2.47272727       0.00000000       0.00000000      -5.59407854
2
Properties=species:S:1:pos:R:3:forces:R:3 energy=-6.066324138742379 pbc="F F F"
P        0.00000000       0.00000000       0.00000000       0.00000000       0.00000000       5.34011745
P        0.00000000       0.00000000       2.53151515       0.00000000       0.00000000      -5.34011745
2
Properties=species:S:1:pos:R:3:forces:R:3 energy=-5.76233866657856 pbc="F F F"
P        0.00000000       0.00000000       0.00000000       0.00000000       0.00000000       4.98662186
P        0.00000000       0.00000000       2.59030303       0.00000000       0.00000000      -4.98662186
2
Properties=species:S:1:pos:R:3:forces:R:3 energy=-5.481580207540967 pbc="F F F"
P        0.00000000       0.00000000       0.00000000       0.00000000       0.00000000       4.55351782
P        0.00000000       0.00000000       2.64909091       0.00000000       0.00000000      -4.55351782
2
Properties=species:S:1:pos:R:3:forces:R:3 energy=-5.228049101854854 pbc="F F F"
P        0.00000000       0.00000000       0.00000000       0.00000000       0.00000000       4.06458807
P        0.00000000       0.00000000       2.70787879       0.00000000       0.00000000      -4.06458807
2
Properties=species:S:1:pos:R:3:forces:R:3 energy=-5.0042199549605435 pbc="F F F"
P        0.00000000       0.00000000       0.00000000       0.00000000       0.00000000       3.54834676
P        0.00000000       0.00000000       2.76666667       0.00000000       0.00000000      -3.54834676
2
Properties=species:S:1:pos:R:3:forces:R:3 energy=-4.810723663796038 pbc="F F F"
P        0.00000000       0.00000000       0.00000000       0.00000000       0.00000000       3.03862047
P        0.00000000       0.00000000       2.82545455       0.00000000       0.00000000      -3.03862047
2
Properties=species:S:1:pos:R:3:forces:R:3 energy=-4.646161042484688 pbc="F F F"
P        0.00000000       0.00000000       0.00000000       0.00000000       0.00000000       2.56899691
P        0.00000000       0.00000000       2.88424242       0.00000000       0.00000000      -2.56899691
2
Properties=species:S:1:pos:R:3:forces:R:3 energy=-4.507411296197348 pbc="F F F"
P        0.00000000       0.00000000       0.00000000       0.00000000       0.00000000       2.16305757
P        0.00000000       0.00000000       2.94303030       0.00000000       0.00000000      -2.16305757
2
Properties=species:S:1:pos:R:3:forces:R:3 energy=-4.390440592342646 pbc="F F F"
P        0.00000000       0.00000000       0.00000000       0.00000000       0.00000000       1.82791662
P        0.00000000       0.00000000       3.00181818       0.00000000       0.00000000      -1.82791662
2
Properties=species:S:1:pos:R:3:forces:R:3 energy=-4.29124046893724 pbc="F F F"
P        0.00000000       0.00000000       0.00000000       0.00000000       0.00000000       1.55652523
P        0.00000000       0.00000000       3.06060606       0.00000000       0.00000000      -1.55652523
2
Properties=species:S:1:pos:R:3:forces:R:3 energy=-4.206442927409806 pbc="F F F"
P        0.00000000       0.00000000       0.00000000       0.00000000       0.00000000       1.33556974
P        0.00000000       0.00000000       3.11939394       0.00000000       0.00000000      -1.33556974
2
Properties=species:S:1:pos:R:3:forces:R:3 energy=-4.133483588724394 pbc="F F F"
P        0.00000000       0.00000000       0.00000000       0.00000000       0.00000000       1.15174127
P        0.00000000       0.00000000       3.17818182       0.00000000       0.00000000      -1.15174127
2
Properties=species:S:1:pos:R:3:forces:R:3 energy=-4.070509399179657 pbc="F F F"
P        0.00000000       0.00000000       0.00000000       0.00000000       0.00000000       0.99439031
P        0.00000000       0.00000000       3.23696970       0.00000000       0.00000000      -0.99439031
2
Properties=species:S:1:pos:R:3:forces:R:3 energy=-4.016197279176172 pbc="F F F"
P        0.00000000       0.00000000       0.00000000       0.00000000       0.00000000       0.85605061
P        0.00000000       0.00000000       3.29575758       0.00000000       0.00000000      -0.85605061
2
Properties=species:S:1:pos:R:3:forces:R:3 energy=-3.9695774754003903 pbc="F F F"
P        0.00000000       0.00000000       0.00000000       0.00000000       0.00000000       0.73213983
P        0.00000000       0.00000000       3.35454545       0.00000000       0.00000000      -0.73213983
2
Properties=species:S:1:pos:R:3:forces:R:3 energy=-3.9298775974124074 pbc="F F F"
P        0.00000000       0.00000000       0.00000000       0.00000000       0.00000000       0.62042201
P        0.00000000       0.00000000       3.41333333       0.00000000       0.00000000      -0.62042201
2
Properties=species:S:1:pos:R:3:forces:R:3 energy=-3.8964026484314664 pbc="F F F"
P        0.00000000       0.00000000       0.00000000       0.00000000       0.00000000       0.52036971
P        0.00000000       0.00000000       3.47212121       0.00000000       0.00000000      -0.52036971
2
Properties=species:S:1:pos:R:3:forces:R:3 energy=-3.868457230195317 pbc="F F F"
P        0.00000000       0.00000000       0.00000000       0.00000000       0.00000000       0.43244967
P        0.00000000       0.00000000       3.53090909       0.00000000       0.00000000      -0.43244967
2
Properties=species:S:1:pos:R:3:forces:R:3 energy=-3.8453049237748127 pbc="F F F"
P        0.00000000       0.00000000       0.00000000       0.00000000       0.00000000       0.35738581
P        0.00000000       0.00000000       3.58969697       0.00000000       0.00000000      -0.35738581
2
Properties=species:S:1:pos:R:3:forces:R:3 energy=-3.826176811622224 pbc="F F F"
P        0.00000000       0.00000000       0.00000000       0.00000000       0.00000000       0.29558459
P        0.00000000       0.00000000       3.64848485       0.00000000       0.00000000      -0.29558459
2
Properties=species:S:1:pos:R:3:forces:R:3 energy=-3.810296631899282 pbc="F F F"
P        0.00000000       0.00000000       0.00000000       0.00000000       0.00000000       0.24677223
P        0.00000000       0.00000000       3.70727273       0.00000000       0.00000000      -0.24677223
2
Properties=species:S:1:pos:R:3:forces:R:3 energy=-3.796927759608552 pbc="F F F"
P        0.00000000       0.00000000       0.00000000       0.00000000       0.00000000       0.20988949
P        0.00000000       0.00000000       3.76606061       0.00000000       0.00000000      -0.20988949
2
Properties=species:S:1:pos:R:3:forces:R:3 energy=-3.7854188340729795 pbc="F F F"
P        0.00000000       0.00000000       0.00000000       0.00000000       0.00000000       0.18317884
P        0.00000000       0.00000000       3.82484848       0.00000000       0.00000000      -0.18317884
2
Properties=species:S:1:pos:R:3:forces:R:3 energy=-3.775235643669047 pbc="F F F"
P        0.00000000       0.00000000       0.00000000       0.00000000       0.00000000       0.16436893
P        0.00000000       0.00000000       3.88363636       0.00000000       0.00000000      -0.16436893
2
Properties=species:S:1:pos:R:3:forces:R:3 energy=-3.765987694075191 pbc="F F F"
P        0.00000000       0.00000000       0.00000000       0.00000000       0.00000000       0.15093356
P        0.00000000       0.00000000       3.94242424       0.00000000       0.00000000      -0.15093356
2
Properties=species:S:1:pos:R:3:forces:R:3 energy=-3.7574342250050874 pbc="F F F"
P        0.00000000       0.00000000       0.00000000       0.00000000       0.00000000       0.14033808
P        0.00000000       0.00000000       4.00121212       0.00000000       0.00000000      -0.14033808
2
Properties=species:S:1:pos:R:3:forces:R:3 energy=-3.7494767321165883 pbc="F F F"
P        0.00000000       0.00000000       0.00000000       0.00000000       0.00000000       0.13030127
P        0.00000000       0.00000000       4.06000000       0.00000000       0.00000000      -0.13030127
2
Properties=species:S:1:pos:R:3:forces:R:3 energy=-3.742139024630283 pbc="F F F"
P        0.00000000       0.00000000       0.00000000       0.00000000       0.00000000       0.11900382
P        0.00000000       0.00000000       4.11878788       0.00000000       0.00000000      -0.11900382
2
Properties=species:S:1:pos:R:3:forces:R:3 energy=-3.735533069700155 pbc="F F F"
P        0.00000000       0.00000000       0.00000000       0.00000000       0.00000000       0.10525411
P        0.00000000       0.00000000       4.17757576       0.00000000       0.00000000      -0.10525411
2
Properties=species:S:1:pos:R:3:forces:R:3 energy=-3.7298217183357765 pbc="F F F"
P        0.00000000       0.00000000       0.00000000       0.00000000       0.00000000       0.08856347
P        0.00000000       0.00000000       4.23636364       0.00000000       0.00000000      -0.08856347
2
Properties=species:S:1:pos:R:3:forces:R:3 energy=-3.7251742882705985 pbc="F F F"
P        0.00000000       0.00000000       0.00000000       0.00000000       0.00000000       0.06913344
P        0.00000000       0.00000000       4.29515152       0.00000000       0.00000000      -0.06913344
2
Properties=species:S:1:pos:R:3:forces:R:3 energy=-3.721732048704867 pbc="F F F"
P        0.00000000       0.00000000       0.00000000       0.00000000       0.00000000       0.04774443
P        0.00000000       0.00000000       4.35393939       0.00000000       0.00000000      -0.04774443
2
Properties=species:S:1:pos:R:3:forces:R:3 energy=-3.7195764282712283 pbc="F F F"
P        0.00000000       0.00000000       0.00000000       0.00000000       0.00000000       0.02556011
P        0.00000000       0.00000000       4.41272727       0.00000000       0.00000000      -0.02556011
2
Properties=species:S:1:pos:R:3:forces:R:3 energy=-3.718716467549055 pbc="F F F"
P        0.00000000       0.00000000       0.00000000       0.00000000       0.00000000       0.00389022
P        0.00000000       0.00000000       4.47151515       0.00000000       0.00000000      -0.00389022
2
Properties=species:S:1:pos:R:3:forces:R:3 energy=-3.7190850091189165 pbc="F F F"
P        0.00000000       0.00000000       0.00000000       0.00000000       0.00000000      -0.01607130
P        0.00000000       0.00000000       4.53030303       0.00000000       0.00000000       0.01607130
2
Properties=species:S:1:pos:R:3:forces:R:3 energy=-3.720555462890843 pbc="F F F"
P        0.00000000       0.00000000       0.00000000       0.00000000       0.00000000      -0.03346857
P        0.00000000       0.00000000       4.58909091       0.00000000       0.00000000       0.03346857
2
Properties=species:S:1:pos:R:3:forces:R:3 energy=-3.7229621302882636 pbc="F F F"
P        0.00000000       0.00000000       0.00000000       0.00000000       0.00000000      -0.04791111
P        0.00000000       0.00000000       4.64787879       0.00000000       0.00000000       0.04791111
2
Properties=species:S:1:pos:R:3:forces:R:3 energy=-3.726131945597246 pbc="F F F"
P        0.00000000       0.00000000       0.00000000       0.00000000       0.00000000      -0.05948258
P        0.00000000       0.00000000       4.70666667       0.00000000       0.00000000       0.05948258
2
Properties=species:S:1:pos:R:3:forces:R:3 energy=-3.729907471856043 pbc="F F F"
P        0.00000000       0.00000000       0.00000000       0.00000000       0.00000000      -0.06858382
P        0.00000000       0.00000000       4.76545455       0.00000000       0.00000000       0.06858382
2
Properties=species:S:1:pos:R:3:forces:R:3 energy=-3.734156704527236 pbc="F F F"
P        0.00000000       0.00000000       0.00000000       0.00000000       0.00000000      -0.07566602
P        0.00000000       0.00000000       4.82424242       0.00000000       0.00000000       0.07566602
2
Properties=species:S:1:pos:R:3:forces:R:3 energy=-3.7387681613261488 pbc="F F F"
P        0.00000000       0.00000000       0.00000000       0.00000000       0.00000000      -0.08090971
P        0.00000000       0.00000000       4.88303030       0.00000000       0.00000000       0.08090971
2
Properties=species:S:1:pos:R:3:forces:R:3 energy=-3.7436287013734364 pbc="F F F"
P        0.00000000       0.00000000       0.00000000       0.00000000       0.00000000      -0.08403666
P        0.00000000       0.00000000       4.94181818       0.00000000       0.00000000       0.08403666
2
Properties=species:S:1:pos:R:3:forces:R:3 energy=-3.7485928753204214 pbc="F F F"
P        0.00000000       0.00000000       0.00000000       0.00000000       0.00000000      -0.08430190
P        0.00000000       0.00000000       5.00060606       0.00000000       0.00000000       0.08430190
2
Properties=species:S:1:pos:R:3:forces:R:3 energy=-3.7534672142734973 pbc="F F F"
P        0.00000000       0.00000000       0.00000000       0.00000000       0.00000000      -0.08084346
P        0.00000000       0.00000000       5.05939394       0.00000000       0.00000000       0.08084346
2
Properties=species:S:1:pos:R:3:forces:R:3 energy=-3.7580154963856653 pbc="F F F"
P        0.00000000       0.00000000       0.00000000       0.00000000       0.00000000      -0.07320379
P        0.00000000       0.00000000       5.11818182       0.00000000       0.00000000       0.07320379
2
Properties=species:S:1:pos:R:3:forces:R:3 energy=-3.7619997960338303 pbc="F F F"
P        0.00000000       0.00000000       0.00000000       0.00000000       0.00000000      -0.06180368
P        0.00000000       0.00000000       5.17696970       0.00000000       0.00000000       0.06180368
2
Properties=species:S:1:pos:R:3:forces:R:3 energy=-3.7652346499777214 pbc="F F F"
P        0.00000000       0.00000000       0.00000000       0.00000000       0.00000000      -0.04799643
P        0.00000000       0.00000000       5.23575758       0.00000000       0.00000000       0.04799643
2
Properties=species:S:1:pos:R:3:forces:R:3 energy=-3.7676323307553883 pbc="F F F"
P        0.00000000       0.00000000       0.00000000       0.00000000       0.00000000      -0.03365919
P        0.00000000       0.00000000       5.29454545       0.00000000       0.00000000       0.03365919
2
Properties=species:S:1:pos:R:3:forces:R:3 energy=-3.7692246144458763 pbc="F F F"
P        0.00000000       0.00000000       0.00000000       0.00000000       0.00000000      -0.02099724
P        0.00000000       0.00000000       5.35333333       0.00000000       0.00000000       0.02099724
2
Properties=species:S:1:pos:R:3:forces:R:3 energy=-3.7701858807408883 pbc="F F F"
P        0.00000000       0.00000000       0.00000000       0.00000000       0.00000000      -0.01261869
P        0.00000000       0.00000000       5.41212121       0.00000000       0.00000000       0.01261869
2
Properties=species:S:1:pos:R:3:forces:R:3 energy=-3.7708162089843342 pbc="F F F"
P        0.00000000       0.00000000       0.00000000       0.00000000       0.00000000      -0.00959741
P        0.00000000       0.00000000       5.47090909       0.00000000       0.00000000       0.00959741
2
Properties=species:S:1:pos:R:3:forces:R:3 energy=-3.7713687682687733 pbc="F F F"
P        0.00000000       0.00000000       0.00000000       0.00000000       0.00000000      -0.00935399
P        0.00000000       0.00000000       5.52969697       0.00000000       0.00000000       0.00935399
2
Properties=species:S:1:pos:R:3:forces:R:3 energy=-3.771917030562165 pbc="F F F"
P        0.00000000       0.00000000       0.00000000       0.00000000       0.00000000      -0.00931194
P        0.00000000       0.00000000       5.58848485       0.00000000       0.00000000       0.00931194
2
Properties=species:S:1:pos:R:3:forces:R:3 energy=-3.772486130633443 pbc="F F F"
P        0.00000000       0.00000000       0.00000000       0.00000000       0.00000000      -0.01049955
P        0.00000000       0.00000000       5.64727273       0.00000000       0.00000000       0.01049955
2
Properties=species:S:1:pos:R:3:forces:R:3 energy=-3.773226915575037 pbc="F F F"
P        0.00000000       0.00000000       0.00000000       0.00000000       0.00000000      -0.01542153
P        0.00000000       0.00000000       5.70606061       0.00000000       0.00000000       0.01542153
2
Properties=species:S:1:pos:R:3:forces:R:3 energy=-3.7743599275241615 pbc="F F F"
P        0.00000000       0.00000000       0.00000000       0.00000000       0.00000000      -0.02295966
P        0.00000000       0.00000000       5.76484848       0.00000000       0.00000000       0.02295966
2
Properties=species:S:1:pos:R:3:forces:R:3 energy=-3.7758118038463304 pbc="F F F"
P        0.00000000       0.00000000       0.00000000       0.00000000       0.00000000      -0.02465740
P        0.00000000       0.00000000       5.82363636       0.00000000       0.00000000       0.02465740
2
Properties=species:S:1:pos:R:3:forces:R:3 energy=-3.7770185762639104 pbc="F F F"
P        0.00000000       0.00000000       0.00000000       0.00000000       0.00000000      -0.01502701
P        0.00000000       0.00000000       5.88242424       0.00000000       0.00000000       0.01502701
2
Properties=species:S:1:pos:R:3:forces:R:3 energy=-3.7775138669137847 pbc="F F F"
P        0.00000000       0.00000000       0.00000000       0.00000000       0.00000000      -0.00221840
P        0.00000000       0.00000000       5.94121212       0.00000000       0.00000000       0.00221840
2
Properties=species:S:1:pos:R:3:forces:R:3 energy=-3.777435264858744 pbc="F F F"
P        0.00000000       0.00000000       0.00000000       0.00000000       0.00000000       0.00307396
P        0.00000000       0.00000000       6.00000000       0.00000000       0.00000000      -0.00307396
