2
Properties=species:S:1:pos:R:3:forces:R:3 energy=7787.369746103786 pbc="F F F"
Pd       0.00000000       0.00000000       0.00000000       0.00000000       0.00000000 -127265.83593750
Pd       0.00000000       0.00000000       0.18000000       0.00000000       0.00000000  127265.83593750
2
Properties=species:S:1:pos:R:3:forces:R:3 energy=3252.2708691506614 pbc="F F F"
Pd       0.00000000       0.00000000       0.00000000       0.00000000       0.00000000  -44122.00781250
Pd       0.00000000       0.00000000       0.23878788       0.00000000       0.00000000   44122.00781250
2
Properties=species:S:1:pos:R:3:forces:R:3 energy=1555.972895517849 pbc="F F F"
Pd       0.00000000       0.00000000       0.00000000       0.00000000       0.00000000  -18033.82031250
Pd       0.00000000       0.00000000       0.29757576       0.00000000       0.00000000   18033.82031250
2
Properties=species:S:1:pos:R:3:forces:R:3 energy=828.5845898569544 pbc="F F F"
Pd       0.00000000       0.00000000       0.00000000       0.00000000       0.00000000   -8172.30859375
Pd       0.00000000       0.00000000       0.35636364       0.00000000       0.00000000    8172.30859375
2
Properties=species:S:1:pos:R:3:forces:R:3 energy=487.70513430321944 pbc="F F F"
Pd       0.00000000       0.00000000       0.00000000       0.00000000       0.00000000   -3984.07250977
Pd       0.00000000       0.00000000       0.41515152       0.00000000       0.00000000    3984.07250977
2
Properties=species:S:1:pos:R:3:forces:R:3 energy=316.8550061483982 pbc="F F F"
Pd       0.00000000       0.00000000       0.00000000       0.00000000       0.00000000   -2065.97534180
Pd       0.00000000       0.00000000       0.47393939       0.00000000       0.00000000    2065.97534180
2
Properties=species:S:1:pos:R:3:forces:R:3 energy=225.74650093105302 pbc="F F F"
Pd       0.00000000       0.00000000       0.00000000       0.00000000       0.00000000   -1141.98486328
Pd       0.00000000       0.00000000       0.53272727       0.00000000       0.00000000    1141.98486328
2
Properties=species:S:1:pos:R:3:forces:R:3 energy=173.67818739260883 pbc="F F F"
Pd       0.00000000       0.00000000       0.00000000       0.00000000       0.00000000    -681.30474854
Pd       0.00000000       0.00000000       0.59151515       0.00000000       0.00000000     681.30474854
2
Properties=species:S:1:pos:R:3:forces:R:3 energy=141.32917320858476 pbc="F F F"
Pd       0.00000000       0.00000000       0.00000000       0.00000000       0.00000000    -444.46640015
Pd       0.00000000       0.00000000       0.65030303       0.00000000       0.00000000     444.46640015
2
Properties=species:S:1:pos:R:3:forces:R:3 energy=119.30980232792538 pbc="F F F"
Pd       0.00000000       0.00000000       0.00000000       0.00000000       0.00000000    -317.66613770
Pd       0.00000000       0.00000000       0.70909091       0.00000000       0.00000000     317.66613770
2
Properties=species:S:1:pos:R:3:forces:R:3 energy=102.6978488333283 pbc="F F F"
Pd       0.00000000       0.00000000       0.00000000       0.00000000       0.00000000    -256.03576660
Pd       0.00000000       0.00000000       0.76787879       0.00000000       0.00000000     256.03576660
2
Properties=species:S:1:pos:R:3:forces:R:3 energy=88.81072607071076 pbc="F F F"
Pd       0.00000000       0.00000000       0.00000000       0.00000000       0.00000000    -215.08221436
Pd       0.00000000       0.00000000       0.82666667       0.00000000       0.00000000     215.08221436
2
Properties=species:S:1:pos:R:3:forces:R:3 energy=77.4744152277268 pbc="F F F"
Pd       0.00000000       0.00000000       0.00000000       0.00000000       0.00000000    -173.89169312
Pd       0.00000000       0.00000000       0.88545455       0.00000000       0.00000000     173.89169312
2
Properties=species:S:1:pos:R:3:forces:R:3 energy=67.76957431087814 pbc="F F F"
Pd       0.00000000       0.00000000       0.00000000       0.00000000       0.00000000    -159.74470520
Pd       0.00000000       0.00000000       0.94424242       0.00000000       0.00000000     159.74470520
2
Properties=species:S:1:pos:R:3:forces:R:3 energy=58.62681022873006 pbc="F F F"
Pd       0.00000000       0.00000000       0.00000000       0.00000000       0.00000000    -149.68661499
Pd       0.00000000       0.00000000       1.00303030       0.00000000       0.00000000     149.68661499
2
Properties=species:S:1:pos:R:3:forces:R:3 energy=50.507426758744316 pbc="F F F"
Pd       0.00000000       0.00000000       0.00000000       0.00000000       0.00000000    -122.97502899
Pd       0.00000000       0.00000000       1.06181818       0.00000000       0.00000000     122.97502899
2
Properties=species:S:1:pos:R:3:forces:R:3 energy=44.408097573604316 pbc="F F F"
Pd       0.00000000       0.00000000       0.00000000       0.00000000       0.00000000     -86.60075378
Pd       0.00000000       0.00000000       1.12060606       0.00000000       0.00000000      86.60075378
2
Properties=species:S:1:pos:R:3:forces:R:3 energy=39.53906601561712 pbc="F F F"
Pd       0.00000000       0.00000000       0.00000000       0.00000000       0.00000000     -86.20555115
Pd       0.00000000       0.00000000       1.17939394       0.00000000       0.00000000      86.20555115
2
Properties=species:S:1:pos:R:3:forces:R:3 energy=33.98187898543942 pbc="F F F"
Pd       0.00000000       0.00000000       0.00000000       0.00000000       0.00000000    -101.31690979
Pd       0.00000000       0.00000000       1.23818182       0.00000000       0.00000000     101.31690979
2
Properties=species:S:1:pos:R:3:forces:R:3 energy=27.976570744855888 pbc="F F F"
Pd       0.00000000       0.00000000       0.00000000       0.00000000       0.00000000     -99.66972351
Pd       0.00000000       0.00000000       1.29696970       0.00000000       0.00000000      99.66972351
2
Properties=species:S:1:pos:R:3:forces:R:3 energy=22.529441440630908 pbc="F F F"
Pd       0.00000000       0.00000000       0.00000000       0.00000000       0.00000000     -84.98413086
Pd       0.00000000       0.00000000       1.35575758       0.00000000       0.00000000      84.98413086
2
Properties=species:S:1:pos:R:3:forces:R:3 energy=17.919429556290844 pbc="F F F"
Pd       0.00000000       0.00000000       0.00000000       0.00000000       0.00000000     -72.90888214
Pd       0.00000000       0.00000000       1.41454545       0.00000000       0.00000000      72.90888214
2
Properties=species:S:1:pos:R:3:forces:R:3 energy=13.867434920835006 pbc="F F F"
Pd       0.00000000       0.00000000       0.00000000       0.00000000       0.00000000     -65.21565247
Pd       0.00000000       0.00000000       1.47333333       0.00000000       0.00000000      65.21565247
2
Properties=species:S:1:pos:R:3:forces:R:3 energy=10.263848177471683 pbc="F F F"
Pd       0.00000000       0.00000000       0.00000000       0.00000000       0.00000000     -57.10542679
Pd       0.00000000       0.00000000       1.53212121       0.00000000       0.00000000      57.10542679
2
Properties=species:S:1:pos:R:3:forces:R:3 energy=7.177228686039493 pbc="F F F"
Pd       0.00000000       0.00000000       0.00000000       0.00000000       0.00000000     -47.83541870
Pd       0.00000000       0.00000000       1.59090909       0.00000000       0.00000000      47.83541870
2
Properties=species:S:1:pos:R:3:forces:R:3 energy=4.632144272350927 pbc="F F F"
Pd       0.00000000       0.00000000       0.00000000       0.00000000       0.00000000     -38.91105652
Pd       0.00000000       0.00000000       1.64969697       0.00000000       0.00000000      38.91105652
2
Properties=species:S:1:pos:R:3:forces:R:3 energy=2.577215688260087 pbc="F F F"
Pd       0.00000000       0.00000000       0.00000000       0.00000000       0.00000000     -31.24070168
Pd       0.00000000       0.00000000       1.70848485       0.00000000       0.00000000      31.24070168
2
Properties=species:S:1:pos:R:3:forces:R:3 energy=0.9302044870142827 pbc="F F F"
Pd       0.00000000       0.00000000       0.00000000       0.00000000       0.00000000     -25.02567482
Pd       0.00000000       0.00000000       1.76727273       0.00000000       0.00000000      25.02567482
2
Properties=species:S:1:pos:R:3:forces:R:3 energy=-0.3897669837642215 pbc="F F F"
Pd       0.00000000       0.00000000       0.00000000       0.00000000       0.00000000     -20.06019402
Pd       0.00000000       0.00000000       1.82606061       0.00000000       0.00000000      20.06019402
2
Properties=species:S:1:pos:R:3:forces:R:3 energy=-1.4462076246595177 pbc="F F F"
Pd       0.00000000       0.00000000       0.00000000       0.00000000       0.00000000     -16.00803185
Pd       0.00000000       0.00000000       1.88484848       0.00000000       0.00000000      16.00803185
2
Properties=species:S:1:pos:R:3:forces:R:3 energy=-2.2849400035872796 pbc="F F F"
Pd       0.00000000       0.00000000       0.00000000       0.00000000       0.00000000     -12.62482262
Pd       0.00000000       0.00000000       1.94363636       0.00000000       0.00000000      12.62482262
2
Properties=species:S:1:pos:R:3:forces:R:3 energy=-2.941314224436806 pbc="F F F"
Pd       0.00000000       0.00000000       0.00000000       0.00000000       0.00000000      -9.79114056
Pd       0.00000000       0.00000000       2.00242424       0.00000000       0.00000000       9.79114056
2
Properties=species:S:1:pos:R:3:forces:R:3 energy=-3.445694769729834 pbc="F F F"
Pd       0.00000000       0.00000000       0.00000000       0.00000000       0.00000000      -7.44500303
Pd       0.00000000       0.00000000       2.06121212       0.00000000       0.00000000       7.44500303
2
Properties=species:S:1:pos:R:3:forces:R:3 energy=-3.82513144892933 pbc="F F F"
Pd       0.00000000       0.00000000       0.00000000       0.00000000       0.00000000      -5.53078413
Pd       0.00000000       0.00000000       2.12000000       0.00000000       0.00000000       5.53078413
2
Properties=species:S:1:pos:R:3:forces:R:3 energy=-4.1032562292721195 pbc="F F F"
Pd       0.00000000       0.00000000       0.00000000       0.00000000       0.00000000      -3.98795748
Pd       0.00000000       0.00000000       2.17878788       0.00000000       0.00000000       3.98795748
2
Properties=species:S:1:pos:R:3:forces:R:3 energy=-4.3001539364570736 pbc="F F F"
Pd       0.00000000       0.00000000       0.00000000       0.00000000       0.00000000      -2.75838256
Pd       0.00000000       0.00000000       2.23757576       0.00000000       0.00000000       2.75838256
2
Properties=species:S:1:pos:R:3:forces:R:3 energy=-4.432698907985266 pbc="F F F"
Pd       0.00000000       0.00000000       0.00000000       0.00000000       0.00000000      -1.79050815
Pd       0.00000000       0.00000000       2.29636364       0.00000000       0.00000000       1.79050815
2
Properties=species:S:1:pos:R:3:forces:R:3 energy=-4.514887487087812 pbc="F F F"
Pd       0.00000000       0.00000000       0.00000000       0.00000000       0.00000000      -1.03778267
Pd       0.00000000       0.00000000       2.35515152       0.00000000       0.00000000       1.03778267
2
Properties=species:S:1:pos:R:3:forces:R:3 energy=-4.558102061883919 pbc="F F F"
Pd       0.00000000       0.00000000       0.00000000       0.00000000       0.00000000      -0.45798820
Pd       0.00000000       0.00000000       2.41393939       0.00000000       0.00000000       0.45798820
2
Properties=species:S:1:pos:R:3:forces:R:3 energy=-4.571403537396079 pbc="F F F"
Pd       0.00000000       0.00000000       0.00000000       0.00000000       0.00000000      -0.01440380
Pd       0.00000000       0.00000000       2.47272727       0.00000000       0.00000000       0.01440380
2
Properties=species:S:1:pos:R:3:forces:R:3 energy=-4.561783529928315 pbc="F F F"
Pd       0.00000000       0.00000000       0.00000000       0.00000000       0.00000000       0.32801706
Pd       0.00000000       0.00000000       2.53151515       0.00000000       0.00000000      -0.32801706
2
Properties=species:S:1:pos:R:3:forces:R:3 energy=-4.534022456970796 pbc="F F F"
Pd       0.00000000       0.00000000       0.00000000       0.00000000       0.00000000       0.60975736
Pd       0.00000000       0.00000000       2.59030303       0.00000000       0.00000000      -0.60975736
2
Properties=species:S:1:pos:R:3:forces:R:3 energy=-4.490667405990532 pbc="F F F"
Pd       0.00000000       0.00000000       0.00000000       0.00000000       0.00000000       0.86027032
Pd       0.00000000       0.00000000       2.64909091       0.00000000       0.00000000      -0.86027032
2
Properties=species:S:1:pos:R:3:forces:R:3 energy=-4.433709890748929 pbc="F F F"
Pd       0.00000000       0.00000000       0.00000000       0.00000000       0.00000000       1.06788349
Pd       0.00000000       0.00000000       2.70787879       0.00000000       0.00000000      -1.06788349
2
Properties=species:S:1:pos:R:3:forces:R:3 energy=-4.3663861811125955 pbc="F F F"
Pd       0.00000000       0.00000000       0.00000000       0.00000000       0.00000000       1.21152973
Pd       0.00000000       0.00000000       2.76666667       0.00000000       0.00000000      -1.21152973
2
Properties=species:S:1:pos:R:3:forces:R:3 energy=-4.292420018908562 pbc="F F F"
Pd       0.00000000       0.00000000       0.00000000       0.00000000       0.00000000       1.29645371
Pd       0.00000000       0.00000000       2.82545455       0.00000000       0.00000000      -1.29645371
2
Properties=species:S:1:pos:R:3:forces:R:3 energy=-4.21476531642647 pbc="F F F"
Pd       0.00000000       0.00000000       0.00000000       0.00000000       0.00000000       1.33991349
Pd       0.00000000       0.00000000       2.88424242       0.00000000       0.00000000      -1.33991349
2
Properties=species:S:1:pos:R:3:forces:R:3 energy=-4.135396621120102 pbc="F F F"
Pd       0.00000000       0.00000000       0.00000000       0.00000000       0.00000000       1.35677361
Pd       0.00000000       0.00000000       2.94303030       0.00000000       0.00000000      -1.35677361
2
Properties=species:S:1:pos:R:3:forces:R:3 energy=-4.055562933895151 pbc="F F F"
Pd       0.00000000       0.00000000       0.00000000       0.00000000       0.00000000       1.35706413
Pd       0.00000000       0.00000000       3.00181818       0.00000000       0.00000000      -1.35706413
2
Properties=species:S:1:pos:R:3:forces:R:3 energy=-3.976058993410191 pbc="F F F"
Pd       0.00000000       0.00000000       0.00000000       0.00000000       0.00000000       1.34598494
Pd       0.00000000       0.00000000       3.06060606       0.00000000       0.00000000      -1.34598494
2
Properties=species:S:1:pos:R:3:forces:R:3 energy=-3.8975164268626634 pbc="F F F"
Pd       0.00000000       0.00000000       0.00000000       0.00000000       0.00000000       1.32416689
Pd       0.00000000       0.00000000       3.11939394       0.00000000       0.00000000      -1.32416689
2
Properties=species:S:1:pos:R:3:forces:R:3 energy=-3.820629809585797 pbc="F F F"
Pd       0.00000000       0.00000000       0.00000000       0.00000000       0.00000000       1.28901732
Pd       0.00000000       0.00000000       3.17818182       0.00000000       0.00000000      -1.28901732
2
Properties=species:S:1:pos:R:3:forces:R:3 energy=-3.7462838808960477 pbc="F F F"
Pd       0.00000000       0.00000000       0.00000000       0.00000000       0.00000000       1.23736143
Pd       0.00000000       0.00000000       3.23696970       0.00000000       0.00000000      -1.23736143
2
Properties=species:S:1:pos:R:3:forces:R:3 energy=-3.675489990710759 pbc="F F F"
Pd       0.00000000       0.00000000       0.00000000       0.00000000       0.00000000       1.16831124
Pd       0.00000000       0.00000000       3.29575758       0.00000000       0.00000000      -1.16831124
2
Properties=species:S:1:pos:R:3:forces:R:3 energy=-3.609202747661352 pbc="F F F"
Pd       0.00000000       0.00000000       0.00000000       0.00000000       0.00000000       1.08487499
Pd       0.00000000       0.00000000       3.35454545       0.00000000       0.00000000      -1.08487499
2
Properties=species:S:1:pos:R:3:forces:R:3 energy=-3.548091972890368 pbc="F F F"
Pd       0.00000000       0.00000000       0.00000000       0.00000000       0.00000000       0.99346912
Pd       0.00000000       0.00000000       3.41333333       0.00000000       0.00000000      -0.99346912
2
Properties=species:S:1:pos:R:3:forces:R:3 energy=-3.4923983641123506 pbc="F F F"
Pd       0.00000000       0.00000000       0.00000000       0.00000000       0.00000000       0.90184414
Pd       0.00000000       0.00000000       3.47212121       0.00000000       0.00000000      -0.90184414
2
Properties=species:S:1:pos:R:3:forces:R:3 energy=-3.4419287969343504 pbc="F F F"
Pd       0.00000000       0.00000000       0.00000000       0.00000000       0.00000000       0.81670320
Pd       0.00000000       0.00000000       3.53090909       0.00000000       0.00000000      -0.81670320
2
Properties=species:S:1:pos:R:3:forces:R:3 energy=-3.3961643054655872 pbc="F F F"
Pd       0.00000000       0.00000000       0.00000000       0.00000000       0.00000000       0.74215418
Pd       0.00000000       0.00000000       3.58969697       0.00000000       0.00000000      -0.74215418
2
Properties=species:S:1:pos:R:3:forces:R:3 energy=-3.354436843183322 pbc="F F F"
Pd       0.00000000       0.00000000       0.00000000       0.00000000       0.00000000       0.67936367
Pd       0.00000000       0.00000000       3.64848485       0.00000000       0.00000000      -0.67936367
2
Properties=species:S:1:pos:R:3:forces:R:3 energy=-3.3160808014437344 pbc="F F F"
Pd       0.00000000       0.00000000       0.00000000       0.00000000       0.00000000       0.62709016
Pd       0.00000000       0.00000000       3.70727273       0.00000000       0.00000000      -0.62709016
2
Properties=species:S:1:pos:R:3:forces:R:3 energy=-3.2805515898788506 pbc="F F F"
Pd       0.00000000       0.00000000       0.00000000       0.00000000       0.00000000       0.58267683
Pd       0.00000000       0.00000000       3.76606061       0.00000000       0.00000000      -0.58267683
2
Properties=species:S:1:pos:R:3:forces:R:3 energy=-3.2474788861030595 pbc="F F F"
Pd       0.00000000       0.00000000       0.00000000       0.00000000       0.00000000       0.54303598
Pd       0.00000000       0.00000000       3.82484848       0.00000000       0.00000000      -0.54303598
2
Properties=species:S:1:pos:R:3:forces:R:3 energy=-3.2166646166587873 pbc="F F F"
Pd       0.00000000       0.00000000       0.00000000       0.00000000       0.00000000       0.50541711
Pd       0.00000000       0.00000000       3.88363636       0.00000000       0.00000000      -0.50541711
2
Properties=species:S:1:pos:R:3:forces:R:3 energy=-3.1880532347215795 pbc="F F F"
Pd       0.00000000       0.00000000       0.00000000       0.00000000       0.00000000       0.46787092
Pd       0.00000000       0.00000000       3.94242424       0.00000000       0.00000000      -0.46787092
2
Properties=species:S:1:pos:R:3:forces:R:3 energy=-3.161673326555156 pbc="F F F"
Pd       0.00000000       0.00000000       0.00000000       0.00000000       0.00000000       0.42940572
Pd       0.00000000       0.00000000       4.00121212       0.00000000       0.00000000      -0.42940572
2
Properties=species:S:1:pos:R:3:forces:R:3 energy=-3.137586144776547 pbc="F F F"
Pd       0.00000000       0.00000000       0.00000000       0.00000000       0.00000000       0.38991988
Pd       0.00000000       0.00000000       4.06000000       0.00000000       0.00000000      -0.38991988
2
Properties=species:S:1:pos:R:3:forces:R:3 energy=-3.115837124685252 pbc="F F F"
Pd       0.00000000       0.00000000       0.00000000       0.00000000       0.00000000       0.35000676
Pd       0.00000000       0.00000000       4.11878788       0.00000000       0.00000000      -0.35000676
2
Properties=species:S:1:pos:R:3:forces:R:3 energy=-3.096422588025545 pbc="F F F"
Pd       0.00000000       0.00000000       0.00000000       0.00000000       0.00000000       0.31065962
Pd       0.00000000       0.00000000       4.17757576       0.00000000       0.00000000      -0.31065962
2
Properties=species:S:1:pos:R:3:forces:R:3 energy=-3.079277565463925 pbc="F F F"
Pd       0.00000000       0.00000000       0.00000000       0.00000000       0.00000000       0.27298948
Pd       0.00000000       0.00000000       4.23636364       0.00000000       0.00000000      -0.27298948
2
Properties=species:S:1:pos:R:3:forces:R:3 energy=-3.0642732508443924 pbc="F F F"
Pd       0.00000000       0.00000000       0.00000000       0.00000000       0.00000000       0.23795959
Pd       0.00000000       0.00000000       4.29515152       0.00000000       0.00000000      -0.23795959
2
Properties=species:S:1:pos:R:3:forces:R:3 energy=-3.051234523786065 pbc="F F F"
Pd       0.00000000       0.00000000       0.00000000       0.00000000       0.00000000       0.20623139
Pd       0.00000000       0.00000000       4.35393939       0.00000000       0.00000000      -0.20623139
2
Properties=species:S:1:pos:R:3:forces:R:3 energy=-3.039955164954646 pbc="F F F"
Pd       0.00000000       0.00000000       0.00000000       0.00000000       0.00000000       0.17810300
Pd       0.00000000       0.00000000       4.41272727       0.00000000       0.00000000      -0.17810300
2
Properties=species:S:1:pos:R:3:forces:R:3 energy=-3.0302230809144763 pbc="F F F"
Pd       0.00000000       0.00000000       0.00000000       0.00000000       0.00000000       0.15357301
Pd       0.00000000       0.00000000       4.47151515       0.00000000       0.00000000      -0.15357301
2
Properties=species:S:1:pos:R:3:forces:R:3 energy=-3.0218324199584785 pbc="F F F"
Pd       0.00000000       0.00000000       0.00000000       0.00000000       0.00000000       0.13241334
Pd       0.00000000       0.00000000       4.53030303       0.00000000       0.00000000      -0.13241334
2
Properties=species:S:1:pos:R:3:forces:R:3 energy=-3.0145958811752482 pbc="F F F"
Pd       0.00000000       0.00000000       0.00000000       0.00000000       0.00000000       0.11423995
Pd       0.00000000       0.00000000       4.58909091       0.00000000       0.00000000      -0.11423995
2
Properties=species:S:1:pos:R:3:forces:R:3 energy=-3.008352048404208 pbc="F F F"
Pd       0.00000000       0.00000000       0.00000000       0.00000000       0.00000000       0.09854636
Pd       0.00000000       0.00000000       4.64787879       0.00000000       0.00000000      -0.09854636
2
Properties=species:S:1:pos:R:3:forces:R:3 energy=-3.0029720699555638 pbc="F F F"
Pd       0.00000000       0.00000000       0.00000000       0.00000000       0.00000000       0.08474547
Pd       0.00000000       0.00000000       4.70666667       0.00000000       0.00000000      -0.08474547
2
Properties=species:S:1:pos:R:3:forces:R:3 energy=-2.998362341403293 pbc="F F F"
Pd       0.00000000       0.00000000       0.00000000       0.00000000       0.00000000       0.07226153
Pd       0.00000000       0.00000000       4.76545455       0.00000000       0.00000000      -0.07226153
2
Properties=species:S:1:pos:R:3:forces:R:3 energy=-2.9944582243387154 pbc="F F F"
Pd       0.00000000       0.00000000       0.00000000       0.00000000       0.00000000       0.06068336
Pd       0.00000000       0.00000000       4.82424242       0.00000000       0.00000000      -0.06068336
2
Properties=species:S:1:pos:R:3:forces:R:3 energy=-2.9912111781028625 pbc="F F F"
Pd       0.00000000       0.00000000       0.00000000       0.00000000       0.00000000       0.04995193
Pd       0.00000000       0.00000000       4.88303030       0.00000000       0.00000000      -0.04995193
2
Properties=species:S:1:pos:R:3:forces:R:3 energy=-2.9885615357189534 pbc="F F F"
Pd       0.00000000       0.00000000       0.00000000       0.00000000       0.00000000       0.04044993
Pd       0.00000000       0.00000000       4.94181818       0.00000000       0.00000000      -0.04044993
2
Properties=species:S:1:pos:R:3:forces:R:3 energy=-2.9864164101600887 pbc="F F F"
Pd       0.00000000       0.00000000       0.00000000       0.00000000       0.00000000       0.03293138
Pd       0.00000000       0.00000000       5.00060606       0.00000000       0.00000000      -0.03293138
2
Properties=species:S:1:pos:R:3:forces:R:3 energy=-2.9846349947607242 pbc="F F F"
Pd       0.00000000       0.00000000       0.00000000       0.00000000       0.00000000       0.02818207
Pd       0.00000000       0.00000000       5.05939394       0.00000000       0.00000000      -0.02818207
2
Properties=species:S:1:pos:R:3:forces:R:3 energy=-2.9830416540637663 pbc="F F F"
Pd       0.00000000       0.00000000       0.00000000       0.00000000       0.00000000       0.02651609
Pd       0.00000000       0.00000000       5.11818182       0.00000000       0.00000000      -0.02651609
2
Properties=species:S:1:pos:R:3:forces:R:3 energy=-2.981468950038584 pbc="F F F"
Pd       0.00000000       0.00000000       0.00000000       0.00000000       0.00000000       0.02728805
Pd       0.00000000       0.00000000       5.17696970       0.00000000       0.00000000      -0.02728805
2
Properties=species:S:1:pos:R:3:forces:R:3 energy=-2.9798182986025896 pbc="F F F"
Pd       0.00000000       0.00000000       0.00000000       0.00000000       0.00000000       0.02882120
Pd       0.00000000       0.00000000       5.23575758       0.00000000       0.00000000      -0.02882120
2
Properties=species:S:1:pos:R:3:forces:R:3 energy=-2.9781033554669882 pbc="F F F"
Pd       0.00000000       0.00000000       0.00000000       0.00000000       0.00000000       0.02922042
Pd       0.00000000       0.00000000       5.29454545       0.00000000       0.00000000      -0.02922042
2
Properties=species:S:1:pos:R:3:forces:R:3 energy=-2.9764132196481268 pbc="F F F"
Pd       0.00000000       0.00000000       0.00000000       0.00000000       0.00000000       0.02816119
Pd       0.00000000       0.00000000       5.35333333       0.00000000       0.00000000      -0.02816119
2
Properties=species:S:1:pos:R:3:forces:R:3 energy=-2.9747794259946643 pbc="F F F"
Pd       0.00000000       0.00000000       0.00000000       0.00000000       0.00000000       0.02773692
Pd       0.00000000       0.00000000       5.41212121       0.00000000       0.00000000      -0.02773692
2
Properties=species:S:1:pos:R:3:forces:R:3 energy=-2.973118522739964 pbc="F F F"
Pd       0.00000000       0.00000000       0.00000000       0.00000000       0.00000000       0.02882065
Pd       0.00000000       0.00000000       5.47090909       0.00000000       0.00000000      -0.02882065
2
Properties=species:S:1:pos:R:3:forces:R:3 energy=-2.971422186144301 pbc="F F F"
Pd       0.00000000       0.00000000       0.00000000       0.00000000       0.00000000       0.02842638
Pd       0.00000000       0.00000000       5.52969697       0.00000000       0.00000000      -0.02842638
2
Properties=species:S:1:pos:R:3:forces:R:3 energy=-2.9698140338087753 pbc="F F F"
Pd       0.00000000       0.00000000       0.00000000       0.00000000       0.00000000       0.02624817
Pd       0.00000000       0.00000000       5.58848485       0.00000000       0.00000000      -0.02624817
2
Properties=species:S:1:pos:R:3:forces:R:3 energy=-2.968310969261545 pbc="F F F"
Pd       0.00000000       0.00000000       0.00000000       0.00000000       0.00000000       0.02527940
Pd       0.00000000       0.00000000       5.64727273       0.00000000       0.00000000      -0.02527940
2
Properties=species:S:1:pos:R:3:forces:R:3 energy=-2.9667981986921705 pbc="F F F"
Pd       0.00000000       0.00000000       0.00000000       0.00000000       0.00000000       0.02640889
Pd       0.00000000       0.00000000       5.70606061       0.00000000       0.00000000      -0.02640889
2
Properties=species:S:1:pos:R:3:forces:R:3 energy=-2.965214318212822 pbc="F F F"
Pd       0.00000000       0.00000000       0.00000000       0.00000000       0.00000000       0.02695658
Pd       0.00000000       0.00000000       5.76484848       0.00000000       0.00000000      -0.02695658
2
Properties=species:S:1:pos:R:3:forces:R:3 energy=-2.963710569549561 pbc="F F F"
Pd       0.00000000       0.00000000       0.00000000       0.00000000       0.00000000       0.02350833
Pd       0.00000000       0.00000000       5.82363636       0.00000000       0.00000000      -0.02350833
2
Properties=species:S:1:pos:R:3:forces:R:3 energy=-2.9625035211191237 pbc="F F F"
Pd       0.00000000       0.00000000       0.00000000       0.00000000       0.00000000       0.01753627
Pd       0.00000000       0.00000000       5.88242424       0.00000000       0.00000000      -0.01753627
2
Properties=species:S:1:pos:R:3:forces:R:3 energy=-2.9616278762716792 pbc="F F F"
Pd       0.00000000       0.00000000       0.00000000       0.00000000       0.00000000       0.01258113
Pd       0.00000000       0.00000000       5.94121212       0.00000000       0.00000000      -0.01258113
2
Properties=species:S:1:pos:R:3:forces:R:3 energy=-2.9609696031779027 pbc="F F F"
Pd       0.00000000       0.00000000       0.00000000       0.00000000       0.00000000       0.01034850
Pd       0.00000000       0.00000000       6.00000000       0.00000000       0.00000000      -0.01034850
