2
Properties=species:S:1:pos:R:3:forces:R:3 energy=11364.28353141289 pbc="F F F"
Pm       0.00000000       0.00000000       0.00000000       0.00000000       0.00000000 -194792.85937500
Pm       0.00000000       0.00000000       0.18000000       0.00000000       0.00000000  194792.85937500
2
Properties=species:S:1:pos:R:3:forces:R:3 energy=4503.05696891289 pbc="F F F"
Pm       0.00000000       0.00000000       0.00000000       0.00000000       0.00000000  -65667.44531250
Pm       0.00000000       0.00000000       0.23878788       0.00000000       0.00000000   65667.44531250
2
Properties=species:S:1:pos:R:3:forces:R:3 energy=2009.0243761394524 pbc="F F F"
Pm       0.00000000       0.00000000       0.00000000       0.00000000       0.00000000  -26070.22851562
Pm       0.00000000       0.00000000       0.29757576       0.00000000       0.00000000   26070.22851562
2
Properties=species:S:1:pos:R:3:forces:R:3 energy=971.3750841472649 pbc="F F F"
Pm       0.00000000       0.00000000       0.00000000       0.00000000       0.00000000  -11454.01757812
Pm       0.00000000       0.00000000       0.35636364       0.00000000       0.00000000   11454.01757812
2
Properties=species:S:1:pos:R:3:forces:R:3 energy=500.31301140602994 pbc="F F F"
Pm       0.00000000       0.00000000       0.00000000       0.00000000       0.00000000   -5404.93310547
Pm       0.00000000       0.00000000       0.41515152       0.00000000       0.00000000    5404.93310547
2
Properties=species:S:1:pos:R:3:forces:R:3 energy=272.18331171167 pbc="F F F"
Pm       0.00000000       0.00000000       0.00000000       0.00000000       0.00000000   -2700.38964844
Pm       0.00000000       0.00000000       0.47393939       0.00000000       0.00000000    2700.38964844
2
Properties=species:S:1:pos:R:3:forces:R:3 energy=155.6012652028809 pbc="F F F"
Pm       0.00000000       0.00000000       0.00000000       0.00000000       0.00000000   -1418.10363770
Pm       0.00000000       0.00000000       0.53272727       0.00000000       0.00000000    1418.10363770
2
Properties=species:S:1:pos:R:3:forces:R:3 energy=93.09373502849245 pbc="F F F"
Pm       0.00000000       0.00000000       0.00000000       0.00000000       0.00000000    -779.56298828
Pm       0.00000000       0.00000000       0.59151515       0.00000000       0.00000000     779.56298828
2
Properties=species:S:1:pos:R:3:forces:R:3 energy=58.045227388747904 pbc="F F F"
Pm       0.00000000       0.00000000       0.00000000       0.00000000       0.00000000    -447.60833740
Pm       0.00000000       0.00000000       0.65030303       0.00000000       0.00000000     447.60833740
2
Properties=species:S:1:pos:R:3:forces:R:3 energy=37.520752367119385 pbc="F F F"
Pm       0.00000000       0.00000000       0.00000000       0.00000000       0.00000000    -268.41900635
Pm       0.00000000       0.00000000       0.70909091       0.00000000       0.00000000     268.41900635
2
Properties=species:S:1:pos:R:3:forces:R:3 energy=24.95267348641001 pbc="F F F"
Pm       0.00000000       0.00000000       0.00000000       0.00000000       0.00000000    -168.60246277
Pm       0.00000000       0.00000000       0.76787879       0.00000000       0.00000000     168.60246277
2
Properties=species:S:1:pos:R:3:forces:R:3 energy=16.868132343007268 pbc="F F F"
Pm       0.00000000       0.00000000       0.00000000       0.00000000       0.00000000    -111.64317322
Pm       0.00000000       0.00000000       0.82666667       0.00000000       0.00000000     111.64317322
2
Properties=species:S:1:pos:R:3:forces:R:3 energy=11.362938873434603 pbc="F F F"
Pm       0.00000000       0.00000000       0.00000000       0.00000000       0.00000000     -78.59289551
Pm       0.00000000       0.00000000       0.88545455       0.00000000       0.00000000      78.59289551
2
Properties=species:S:1:pos:R:3:forces:R:3 energy=7.363623953718574 pbc="F F F"
Pm       0.00000000       0.00000000       0.00000000       0.00000000       0.00000000     -59.14658737
Pm       0.00000000       0.00000000       0.94424242       0.00000000       0.00000000      59.14658737
2
Properties=species:S:1:pos:R:3:forces:R:3 energy=4.259756879062209 pbc="F F F"
Pm       0.00000000       0.00000000       0.00000000       0.00000000       0.00000000     -47.37887955
Pm       0.00000000       0.00000000       1.00303030       0.00000000       0.00000000      47.37887955
2
Properties=species:S:1:pos:R:3:forces:R:3 energy=1.7118229804611116 pbc="F F F"
Pm       0.00000000       0.00000000       0.00000000       0.00000000       0.00000000     -39.81295395
Pm       0.00000000       0.00000000       1.06181818       0.00000000       0.00000000      39.81295395
2
Properties=species:S:1:pos:R:3:forces:R:3 energy=-0.4680315299135288 pbc="F F F"
Pm       0.00000000       0.00000000       0.00000000       0.00000000       0.00000000     -34.64882278
Pm       0.00000000       0.00000000       1.12060606       0.00000000       0.00000000      34.64882278
2
Properties=species:S:1:pos:R:3:forces:R:3 energy=-2.3837113254976514 pbc="F F F"
Pm       0.00000000       0.00000000       0.00000000       0.00000000       0.00000000     -30.59234047
Pm       0.00000000       0.00000000       1.17939394       0.00000000       0.00000000      30.59234047
2
Properties=species:S:1:pos:R:3:forces:R:3 energy=-4.069186673579784 pbc="F F F"
Pm       0.00000000       0.00000000       0.00000000       0.00000000       0.00000000     -26.78600693
Pm       0.00000000       0.00000000       1.23818182       0.00000000       0.00000000      26.78600693
2
Properties=species:S:1:pos:R:3:forces:R:3 energy=-5.527699551984686 pbc="F F F"
Pm       0.00000000       0.00000000       0.00000000       0.00000000       0.00000000     -22.64743423
Pm       0.00000000       0.00000000       1.29696970       0.00000000       0.00000000      22.64743423
2
Properties=species:S:1:pos:R:3:forces:R:3 energy=-6.69995182085938 pbc="F F F"
Pm       0.00000000       0.00000000       0.00000000       0.00000000       0.00000000     -16.97090530
Pm       0.00000000       0.00000000       1.35575758       0.00000000       0.00000000      16.97090530
2
Properties=species:S:1:pos:R:3:forces:R:3 energy=-7.50908152046564 pbc="F F F"
Pm       0.00000000       0.00000000       0.00000000       0.00000000       0.00000000     -10.63582420
Pm       0.00000000       0.00000000       1.41454545       0.00000000       0.00000000      10.63582420
2
Properties=species:S:1:pos:R:3:forces:R:3 energy=-7.984212809381885 pbc="F F F"
Pm       0.00000000       0.00000000       0.00000000       0.00000000       0.00000000      -5.97886992
Pm       0.00000000       0.00000000       1.47333333       0.00000000       0.00000000       5.97886992
2
Properties=species:S:1:pos:R:3:forces:R:3 energy=-8.271193822454899 pbc="F F F"
Pm       0.00000000       0.00000000       0.00000000       0.00000000       0.00000000      -4.26085901
Pm       0.00000000       0.00000000       1.53212121       0.00000000       0.00000000       4.26085901
2
Properties=species:S:1:pos:R:3:forces:R:3 energy=-8.527564728979318 pbc="F F F"
Pm       0.00000000       0.00000000       0.00000000       0.00000000       0.00000000      -4.67071915
Pm       0.00000000       0.00000000       1.59090909       0.00000000       0.00000000       4.67071915
2
Properties=species:S:1:pos:R:3:forces:R:3 energy=-8.825335366497724 pbc="F F F"
Pm       0.00000000       0.00000000       0.00000000       0.00000000       0.00000000      -5.35107565
Pm       0.00000000       0.00000000       1.64969697       0.00000000       0.00000000       5.35107565
2
Properties=species:S:1:pos:R:3:forces:R:3 energy=-9.135861033858367 pbc="F F F"
Pm       0.00000000       0.00000000       0.00000000       0.00000000       0.00000000      -5.05014229
Pm       0.00000000       0.00000000       1.70848485       0.00000000       0.00000000       5.05014229
2
Properties=species:S:1:pos:R:3:forces:R:3 energy=-9.411995621458328 pbc="F F F"
Pm       0.00000000       0.00000000       0.00000000       0.00000000       0.00000000      -4.38444901
Pm       0.00000000       0.00000000       1.76727273       0.00000000       0.00000000       4.38444901
2
Properties=species:S:1:pos:R:3:forces:R:3 energy=-9.660051258843414 pbc="F F F"
Pm       0.00000000       0.00000000       0.00000000       0.00000000       0.00000000      -4.11718893
Pm       0.00000000       0.00000000       1.82606061       0.00000000       0.00000000       4.11718893
2
Properties=species:S:1:pos:R:3:forces:R:3 energy=-9.899359611984437 pbc="F F F"
Pm       0.00000000       0.00000000       0.00000000       0.00000000       0.00000000      -4.02385807
Pm       0.00000000       0.00000000       1.88484848       0.00000000       0.00000000       4.02385807
2
Properties=species:S:1:pos:R:3:forces:R:3 energy=-10.131717061168716 pbc="F F F"
Pm       0.00000000       0.00000000       0.00000000       0.00000000       0.00000000      -3.86564612
Pm       0.00000000       0.00000000       1.94363636       0.00000000       0.00000000       3.86564612
2
Properties=species:S:1:pos:R:3:forces:R:3 energy=-10.35246264521589 pbc="F F F"
Pm       0.00000000       0.00000000       0.00000000       0.00000000       0.00000000      -3.63690519
Pm       0.00000000       0.00000000       2.00242424       0.00000000       0.00000000       3.63690519
2
Properties=species:S:1:pos:R:3:forces:R:3 energy=-10.558906647757615 pbc="F F F"
Pm       0.00000000       0.00000000       0.00000000       0.00000000       0.00000000      -3.38514280
Pm       0.00000000       0.00000000       2.06121212       0.00000000       0.00000000       3.38514280
2
Properties=species:S:1:pos:R:3:forces:R:3 energy=-10.75029613824928 pbc="F F F"
Pm       0.00000000       0.00000000       0.00000000       0.00000000       0.00000000      -3.12323403
Pm       0.00000000       0.00000000       2.12000000       0.00000000       0.00000000       3.12323403
2
Properties=species:S:1:pos:R:3:forces:R:3 energy=-10.925606414308673 pbc="F F F"
Pm       0.00000000       0.00000000       0.00000000       0.00000000       0.00000000      -2.83538246
Pm       0.00000000       0.00000000       2.17878788       0.00000000       0.00000000       2.83538246
2
Properties=species:S:1:pos:R:3:forces:R:3 energy=-11.083015387783473 pbc="F F F"
Pm       0.00000000       0.00000000       0.00000000       0.00000000       0.00000000      -2.51481366
Pm       0.00000000       0.00000000       2.23757576       0.00000000       0.00000000       2.51481366
2
Properties=species:S:1:pos:R:3:forces:R:3 energy=-11.220829716554073 pbc="F F F"
Pm       0.00000000       0.00000000       0.00000000       0.00000000       0.00000000      -2.17094064
Pm       0.00000000       0.00000000       2.29636364       0.00000000       0.00000000       2.17094064
2
Properties=species:S:1:pos:R:3:forces:R:3 energy=-11.338056933095693 pbc="F F F"
Pm       0.00000000       0.00000000       0.00000000       0.00000000       0.00000000      -1.81643474
Pm       0.00000000       0.00000000       2.35515152       0.00000000       0.00000000       1.81643474
2
Properties=species:S:1:pos:R:3:forces:R:3 energy=-11.434420703267438 pbc="F F F"
Pm       0.00000000       0.00000000       0.00000000       0.00000000       0.00000000      -1.46305156
Pm       0.00000000       0.00000000       2.41393939       0.00000000       0.00000000       1.46305156
2
Properties=species:S:1:pos:R:3:forces:R:3 energy=-11.51033221608282 pbc="F F F"
Pm       0.00000000       0.00000000       0.00000000       0.00000000       0.00000000      -1.12271893
Pm       0.00000000       0.00000000       2.47272727       0.00000000       0.00000000       1.12271893
2
Properties=species:S:1:pos:R:3:forces:R:3 energy=-11.566913097235908 pbc="F F F"
Pm       0.00000000       0.00000000       0.00000000       0.00000000       0.00000000      -0.80732107
Pm       0.00000000       0.00000000       2.53151515       0.00000000       0.00000000       0.80732107
2
Properties=species:S:1:pos:R:3:forces:R:3 energy=-11.605954375763165 pbc="F F F"
Pm       0.00000000       0.00000000       0.00000000       0.00000000       0.00000000      -0.52754188
Pm       0.00000000       0.00000000       2.59030303       0.00000000       0.00000000       0.52754188
2
Properties=species:S:1:pos:R:3:forces:R:3 energy=-11.629784876987772 pbc="F F F"
Pm       0.00000000       0.00000000       0.00000000       0.00000000       0.00000000      -0.29059258
Pm       0.00000000       0.00000000       2.64909091       0.00000000       0.00000000       0.29059258
2
Properties=species:S:1:pos:R:3:forces:R:3 energy=-11.640989812568561 pbc="F F F"
Pm       0.00000000       0.00000000       0.00000000       0.00000000       0.00000000      -0.09776877
Pm       0.00000000       0.00000000       2.70787879       0.00000000       0.00000000       0.09776877
2
Properties=species:S:1:pos:R:3:forces:R:3 energy=-11.642050430992587 pbc="F F F"
Pm       0.00000000       0.00000000       0.00000000       0.00000000       0.00000000       0.05577452
Pm       0.00000000       0.00000000       2.76666667       0.00000000       0.00000000      -0.05577452
2
Properties=species:S:1:pos:R:3:forces:R:3 energy=-11.635033005706383 pbc="F F F"
Pm       0.00000000       0.00000000       0.00000000       0.00000000       0.00000000       0.17867056
Pm       0.00000000       0.00000000       2.82545455       0.00000000       0.00000000      -0.17867056
2
Properties=species:S:1:pos:R:3:forces:R:3 energy=-11.621463929123086 pbc="F F F"
Pm       0.00000000       0.00000000       0.00000000       0.00000000       0.00000000       0.28005618
Pm       0.00000000       0.00000000       2.88424242       0.00000000       0.00000000      -0.28005618
2
Properties=species:S:1:pos:R:3:forces:R:3 energy=-11.602387912098317 pbc="F F F"
Pm       0.00000000       0.00000000       0.00000000       0.00000000       0.00000000       0.36686462
Pm       0.00000000       0.00000000       2.94303030       0.00000000       0.00000000      -0.36686462
2
Properties=species:S:1:pos:R:3:forces:R:3 energy=-11.578544324979696 pbc="F F F"
Pm       0.00000000       0.00000000       0.00000000       0.00000000       0.00000000       0.44259065
Pm       0.00000000       0.00000000       3.00181818       0.00000000       0.00000000      -0.44259065
2
Properties=species:S:1:pos:R:3:forces:R:3 energy=-11.550554231814452 pbc="F F F"
Pm       0.00000000       0.00000000       0.00000000       0.00000000       0.00000000       0.50784534
Pm       0.00000000       0.00000000       3.06060606       0.00000000       0.00000000      -0.50784534
2
Properties=species:S:1:pos:R:3:forces:R:3 energy=-11.519047102320625 pbc="F F F"
Pm       0.00000000       0.00000000       0.00000000       0.00000000       0.00000000       0.56226295
Pm       0.00000000       0.00000000       3.11939394       0.00000000       0.00000000      -0.56226295
2
Properties=species:S:1:pos:R:3:forces:R:3 energy=-11.484645641797016 pbc="F F F"
Pm       0.00000000       0.00000000       0.00000000       0.00000000       0.00000000       0.60656154
Pm       0.00000000       0.00000000       3.17818182       0.00000000       0.00000000      -0.60656154
2
Properties=species:S:1:pos:R:3:forces:R:3 energy=-11.447873284714504 pbc="F F F"
Pm       0.00000000       0.00000000       0.00000000       0.00000000       0.00000000       0.64361060
Pm       0.00000000       0.00000000       3.23696970       0.00000000       0.00000000      -0.64361060
2
Properties=species:S:1:pos:R:3:forces:R:3 energy=-11.409026339001196 pbc="F F F"
Pm       0.00000000       0.00000000       0.00000000       0.00000000       0.00000000       0.67794251
Pm       0.00000000       0.00000000       3.29575758       0.00000000       0.00000000      -0.67794251
2
Properties=species:S:1:pos:R:3:forces:R:3 energy=-11.368129214034715 pbc="F F F"
Pm       0.00000000       0.00000000       0.00000000       0.00000000       0.00000000       0.71398318
Pm       0.00000000       0.00000000       3.35454545       0.00000000       0.00000000      -0.71398318
2
Properties=species:S:1:pos:R:3:forces:R:3 energy=-11.325000899076002 pbc="F F F"
Pm       0.00000000       0.00000000       0.00000000       0.00000000       0.00000000       0.75389880
Pm       0.00000000       0.00000000       3.41333333       0.00000000       0.00000000      -0.75389880
2
Properties=species:S:1:pos:R:3:forces:R:3 energy=-11.27944166469575 pbc="F F F"
Pm       0.00000000       0.00000000       0.00000000       0.00000000       0.00000000       0.79608470
Pm       0.00000000       0.00000000       3.47212121       0.00000000       0.00000000      -0.79608470
2
Properties=species:S:1:pos:R:3:forces:R:3 energy=-11.231462087322184 pbc="F F F"
Pm       0.00000000       0.00000000       0.00000000       0.00000000       0.00000000       0.83504677
Pm       0.00000000       0.00000000       3.53090909       0.00000000       0.00000000      -0.83504677
2
Properties=species:S:1:pos:R:3:forces:R:3 energy=-11.181477966268986 pbc="F F F"
Pm       0.00000000       0.00000000       0.00000000       0.00000000       0.00000000       0.86289674
Pm       0.00000000       0.00000000       3.58969697       0.00000000       0.00000000      -0.86289674
2
Properties=species:S:1:pos:R:3:forces:R:3 energy=-11.130374321284798 pbc="F F F"
Pm       0.00000000       0.00000000       0.00000000       0.00000000       0.00000000       0.87205344
Pm       0.00000000       0.00000000       3.64848485       0.00000000       0.00000000      -0.87205344
2
Properties=species:S:1:pos:R:3:forces:R:3 energy=-11.079404100335063 pbc="F F F"
Pm       0.00000000       0.00000000       0.00000000       0.00000000       0.00000000       0.85802627
Pm       0.00000000       0.00000000       3.70727273       0.00000000       0.00000000      -0.85802627
2
Properties=species:S:1:pos:R:3:forces:R:3 energy=-11.029946225094013 pbc="F F F"
Pm       0.00000000       0.00000000       0.00000000       0.00000000       0.00000000       0.82089305
Pm       0.00000000       0.00000000       3.76606061       0.00000000       0.00000000      -0.82089305
2
Properties=species:S:1:pos:R:3:forces:R:3 energy=-10.983260205205712 pbc="F F F"
Pm       0.00000000       0.00000000       0.00000000       0.00000000       0.00000000       0.76474023
Pm       0.00000000       0.00000000       3.82484848       0.00000000       0.00000000      -0.76474023
2
Properties=species:S:1:pos:R:3:forces:R:3 energy=-10.940285141086482 pbc="F F F"
Pm       0.00000000       0.00000000       0.00000000       0.00000000       0.00000000       0.69565111
Pm       0.00000000       0.00000000       3.88363636       0.00000000       0.00000000      -0.69565111
2
Properties=species:S:1:pos:R:3:forces:R:3 energy=-10.901601602294843 pbc="F F F"
Pm       0.00000000       0.00000000       0.00000000       0.00000000       0.00000000       0.61974013
Pm       0.00000000       0.00000000       3.94242424       0.00000000       0.00000000      -0.61974013
2
Properties=species:S:1:pos:R:3:forces:R:3 energy=-10.867451464622803 pbc="F F F"
Pm       0.00000000       0.00000000       0.00000000       0.00000000       0.00000000       0.54217494
Pm       0.00000000       0.00000000       4.00121212       0.00000000       0.00000000      -0.54217494
2
Properties=species:S:1:pos:R:3:forces:R:3 energy=-10.837804920723801 pbc="F F F"
Pm       0.00000000       0.00000000       0.00000000       0.00000000       0.00000000       0.46715099
Pm       0.00000000       0.00000000       4.06000000       0.00000000       0.00000000      -0.46715099
2
Properties=species:S:1:pos:R:3:forces:R:3 energy=-10.812408125814647 pbc="F F F"
Pm       0.00000000       0.00000000       0.00000000       0.00000000       0.00000000       0.39814517
Pm       0.00000000       0.00000000       4.11878788       0.00000000       0.00000000      -0.39814517
2
Properties=species:S:1:pos:R:3:forces:R:3 energy=-10.79081754262221 pbc="F F F"
Pm       0.00000000       0.00000000       0.00000000       0.00000000       0.00000000       0.33801723
Pm       0.00000000       0.00000000       4.17757576       0.00000000       0.00000000      -0.33801723
2
Properties=species:S:1:pos:R:3:forces:R:3 energy=-10.772446760123934 pbc="F F F"
Pm       0.00000000       0.00000000       0.00000000       0.00000000       0.00000000       0.28897682
Pm       0.00000000       0.00000000       4.23636364       0.00000000       0.00000000      -0.28897682
2
Properties=species:S:1:pos:R:3:forces:R:3 energy=-10.75659409941787 pbc="F F F"
Pm       0.00000000       0.00000000       0.00000000       0.00000000       0.00000000       0.25250250
Pm       0.00000000       0.00000000       4.29515152       0.00000000       0.00000000      -0.25250250
2
Properties=species:S:1:pos:R:3:forces:R:3 energy=-10.742497188570601 pbc="F F F"
Pm       0.00000000       0.00000000       0.00000000       0.00000000       0.00000000       0.22933812
Pm       0.00000000       0.00000000       4.35393939       0.00000000       0.00000000      -0.22933812
2
Properties=species:S:1:pos:R:3:forces:R:3 energy=-10.729368096511507 pbc="F F F"
Pm       0.00000000       0.00000000       0.00000000       0.00000000       0.00000000       0.21950811
Pm       0.00000000       0.00000000       4.41272727       0.00000000       0.00000000      -0.21950811
2
Properties=species:S:1:pos:R:3:forces:R:3 energy=-10.71643932481184 pbc="F F F"
Pm       0.00000000       0.00000000       0.00000000       0.00000000       0.00000000       0.22235078
Pm       0.00000000       0.00000000       4.47151515       0.00000000       0.00000000      -0.22235078
2
Properties=species:S:1:pos:R:3:forces:R:3 energy=-10.70300288298913 pbc="F F F"
Pm       0.00000000       0.00000000       0.00000000       0.00000000       0.00000000       0.23649454
Pm       0.00000000       0.00000000       4.53030303       0.00000000       0.00000000      -0.23649454
2
Properties=species:S:1:pos:R:3:forces:R:3 energy=-10.688453229193998 pbc="F F F"
Pm       0.00000000       0.00000000       0.00000000       0.00000000       0.00000000       0.25979728
Pm       0.00000000       0.00000000       4.58909091       0.00000000       0.00000000      -0.25979728
2
Properties=species:S:1:pos:R:3:forces:R:3 energy=-10.672335131324015 pbc="F F F"
Pm       0.00000000       0.00000000       0.00000000       0.00000000       0.00000000       0.28933477
Pm       0.00000000       0.00000000       4.64787879       0.00000000       0.00000000      -0.28933477
2
Properties=species:S:1:pos:R:3:forces:R:3 energy=-10.654382615615209 pbc="F F F"
Pm       0.00000000       0.00000000       0.00000000       0.00000000       0.00000000       0.32149887
Pm       0.00000000       0.00000000       4.70666667       0.00000000       0.00000000      -0.32149887
2
Properties=species:S:1:pos:R:3:forces:R:3 energy=-10.6345601773783 pbc="F F F"
Pm       0.00000000       0.00000000       0.00000000       0.00000000       0.00000000       0.35235509
Pm       0.00000000       0.00000000       4.76545455       0.00000000       0.00000000      -0.35235509
2
Properties=species:S:1:pos:R:3:forces:R:3 energy=-10.613050370561279 pbc="F F F"
Pm       0.00000000       0.00000000       0.00000000       0.00000000       0.00000000       0.37828177
Pm       0.00000000       0.00000000       4.82424242       0.00000000       0.00000000      -0.37828177
2
Properties=species:S:1:pos:R:3:forces:R:3 energy=-10.590232877599622 pbc="F F F"
Pm       0.00000000       0.00000000       0.00000000       0.00000000       0.00000000       0.39670646
Pm       0.00000000       0.00000000       4.88303030       0.00000000       0.00000000      -0.39670646
2
Properties=species:S:1:pos:R:3:forces:R:3 energy=-10.566573819839126 pbc="F F F"
Pm       0.00000000       0.00000000       0.00000000       0.00000000       0.00000000       0.40675962
Pm       0.00000000       0.00000000       4.94181818       0.00000000       0.00000000      -0.40675962
2
Properties=species:S:1:pos:R:3:forces:R:3 energy=-10.54255334164432 pbc="F F F"
Pm       0.00000000       0.00000000       0.00000000       0.00000000       0.00000000       0.40934339
Pm       0.00000000       0.00000000       5.00060606       0.00000000       0.00000000      -0.40934339
2
Properties=species:S:1:pos:R:3:forces:R:3 energy=-10.51854931915265 pbc="F F F"
Pm       0.00000000       0.00000000       0.00000000       0.00000000       0.00000000       0.40651086
Pm       0.00000000       0.00000000       5.05939394       0.00000000       0.00000000      -0.40651086
2
Properties=species:S:1:pos:R:3:forces:R:3 energy=-10.494827677811502 pbc="F F F"
Pm       0.00000000       0.00000000       0.00000000       0.00000000       0.00000000       0.40001276
Pm       0.00000000       0.00000000       5.11818182       0.00000000       0.00000000      -0.40001276
2
Properties=species:S:1:pos:R:3:forces:R:3 energy=-10.471596815170683 pbc="F F F"
Pm       0.00000000       0.00000000       0.00000000       0.00000000       0.00000000       0.38941503
Pm       0.00000000       0.00000000       5.17696970       0.00000000       0.00000000      -0.38941503
2
Properties=species:S:1:pos:R:3:forces:R:3 energy=-10.449198297731828 pbc="F F F"
Pm       0.00000000       0.00000000       0.00000000       0.00000000       0.00000000       0.37080863
Pm       0.00000000       0.00000000       5.23575758       0.00000000       0.00000000      -0.37080863
2
Properties=species:S:1:pos:R:3:forces:R:3 energy=-10.428257357756715 pbc="F F F"
Pm       0.00000000       0.00000000       0.00000000       0.00000000       0.00000000       0.33937037
Pm       0.00000000       0.00000000       5.29454545       0.00000000       0.00000000      -0.33937037
2
Properties=species:S:1:pos:R:3:forces:R:3 energy=-10.409446527756614 pbc="F F F"
Pm       0.00000000       0.00000000       0.00000000       0.00000000       0.00000000       0.30119908
Pm       0.00000000       0.00000000       5.35333333       0.00000000       0.00000000      -0.30119908
2
Properties=species:S:1:pos:R:3:forces:R:3 energy=-10.392411562457527 pbc="F F F"
Pm       0.00000000       0.00000000       0.00000000       0.00000000       0.00000000       0.28487667
Pm       0.00000000       0.00000000       5.41212121       0.00000000       0.00000000      -0.28487667
2
Properties=species:S:1:pos:R:3:forces:R:3 energy=-10.375175328995992 pbc="F F F"
Pm       0.00000000       0.00000000       0.00000000       0.00000000       0.00000000       0.30519187
Pm       0.00000000       0.00000000       5.47090909       0.00000000       0.00000000      -0.30519187
2
Properties=species:S:1:pos:R:3:forces:R:3 energy=-10.356737472420454 pbc="F F F"
Pm       0.00000000       0.00000000       0.00000000       0.00000000       0.00000000       0.31559202
Pm       0.00000000       0.00000000       5.52969697       0.00000000       0.00000000      -0.31559202
2
Properties=species:S:1:pos:R:3:forces:R:3 energy=-10.338886301857773 pbc="F F F"
Pm       0.00000000       0.00000000       0.00000000       0.00000000       0.00000000       0.28731158
Pm       0.00000000       0.00000000       5.58848485       0.00000000       0.00000000      -0.28731158
2
Properties=species:S:1:pos:R:3:forces:R:3 energy=-10.322877963494964 pbc="F F F"
Pm       0.00000000       0.00000000       0.00000000       0.00000000       0.00000000       0.26401061
Pm       0.00000000       0.00000000       5.64727273       0.00000000       0.00000000      -0.26401061
2
Properties=species:S:1:pos:R:3:forces:R:3 energy=-10.306641132458791 pbc="F F F"
Pm       0.00000000       0.00000000       0.00000000       0.00000000       0.00000000       0.29871529
Pm       0.00000000       0.00000000       5.70606061       0.00000000       0.00000000      -0.29871529
2
Properties=species:S:1:pos:R:3:forces:R:3 energy=-10.287324219894092 pbc="F F F"
Pm       0.00000000       0.00000000       0.00000000       0.00000000       0.00000000       0.35005423
Pm       0.00000000       0.00000000       5.76484848       0.00000000       0.00000000      -0.35005423
2
Properties=species:S:1:pos:R:3:forces:R:3 energy=-10.26733872474347 pbc="F F F"
Pm       0.00000000       0.00000000       0.00000000       0.00000000       0.00000000       0.31134742
Pm       0.00000000       0.00000000       5.82363636       0.00000000       0.00000000      -0.31134742
2
Properties=species:S:1:pos:R:3:forces:R:3 energy=-10.252387824208522 pbc="F F F"
Pm       0.00000000       0.00000000       0.00000000       0.00000000       0.00000000       0.19309133
Pm       0.00000000       0.00000000       5.88242424       0.00000000       0.00000000      -0.19309133
2
Properties=species:S:1:pos:R:3:forces:R:3 energy=-10.244426400631292 pbc="F F F"
Pm       0.00000000       0.00000000       0.00000000       0.00000000       0.00000000       0.08444844
Pm       0.00000000       0.00000000       5.94121212       0.00000000       0.00000000      -0.08444844
2
Properties=species:S:1:pos:R:3:forces:R:3 energy=-10.241107796349153 pbc="F F F"
Pm       0.00000000       0.00000000       0.00000000       0.00000000       0.00000000       0.04226183
Pm       0.00000000       0.00000000       6.00000000       0.00000000       0.00000000      -0.04226183
