2
Properties=species:S:1:pos:R:3:forces:R:3 energy=16074.089756411711 pbc="F F F"
Pt       0.00000000       0.00000000       0.00000000       0.00000000       0.00000000 -280469.31250000
Pt       0.00000000       0.00000000       0.18000000       0.00000000       0.00000000  280469.31250000
2
Properties=species:S:1:pos:R:3:forces:R:3 energy=6300.345127505461 pbc="F F F"
Pt       0.00000000       0.00000000       0.00000000       0.00000000       0.00000000  -92101.07812500
Pt       0.00000000       0.00000000       0.23878788       0.00000000       0.00000000   92101.07812500
2
Properties=species:S:1:pos:R:3:forces:R:3 energy=2842.5165142273795 pbc="F F F"
Pt       0.00000000       0.00000000       0.00000000       0.00000000       0.00000000  -35571.14453125
Pt       0.00000000       0.00000000       0.29757576       0.00000000       0.00000000   35571.14453125
2
Properties=species:S:1:pos:R:3:forces:R:3 energy=1443.5299419649223 pbc="F F F"
Pt       0.00000000       0.00000000       0.00000000       0.00000000       0.00000000  -15205.15039062
Pt       0.00000000       0.00000000       0.35636364       0.00000000       0.00000000   15205.15039062
2
Properties=species:S:1:pos:R:3:forces:R:3 energy=825.0506328892267 pbc="F F F"
Pt       0.00000000       0.00000000       0.00000000       0.00000000       0.00000000   -7002.51318359
Pt       0.00000000       0.00000000       0.41515152       0.00000000       0.00000000    7002.51318359
2
Properties=species:S:1:pos:R:3:forces:R:3 energy=531.979099698773 pbc="F F F"
Pt       0.00000000       0.00000000       0.00000000       0.00000000       0.00000000   -3438.50097656
Pt       0.00000000       0.00000000       0.47393939       0.00000000       0.00000000    3438.50097656
2
Properties=species:S:1:pos:R:3:forces:R:3 energy=383.93130919677185 pbc="F F F"
Pt       0.00000000       0.00000000       0.00000000       0.00000000       0.00000000   -1802.36328125
Pt       0.00000000       0.00000000       0.53272727       0.00000000       0.00000000    1802.36328125
2
Properties=species:S:1:pos:R:3:forces:R:3 energy=303.5804181246723 pbc="F F F"
Pt       0.00000000       0.00000000       0.00000000       0.00000000       0.00000000   -1025.43286133
Pt       0.00000000       0.00000000       0.59151515       0.00000000       0.00000000    1025.43286133
2
Properties=species:S:1:pos:R:3:forces:R:3 energy=254.4012342312356 pbc="F F F"
Pt       0.00000000       0.00000000       0.00000000       0.00000000       0.00000000    -701.74041748
Pt       0.00000000       0.00000000       0.65030303       0.00000000       0.00000000     701.74041748
2
Properties=species:S:1:pos:R:3:forces:R:3 energy=218.19536276007813 pbc="F F F"
Pt       0.00000000       0.00000000       0.00000000       0.00000000       0.00000000    -555.99890137
Pt       0.00000000       0.00000000       0.70909091       0.00000000       0.00000000     555.99890137
2
Properties=species:S:1:pos:R:3:forces:R:3 energy=186.44302832691048 pbc="F F F"
Pt       0.00000000       0.00000000       0.00000000       0.00000000       0.00000000    -553.41174316
Pt       0.00000000       0.00000000       0.76787879       0.00000000       0.00000000     553.41174316
2
Properties=species:S:1:pos:R:3:forces:R:3 energy=154.7541095066178 pbc="F F F"
Pt       0.00000000       0.00000000       0.00000000       0.00000000       0.00000000    -531.08380127
Pt       0.00000000       0.00000000       0.82666667       0.00000000       0.00000000     531.08380127
2
Properties=species:S:1:pos:R:3:forces:R:3 energy=122.55898808360588 pbc="F F F"
Pt       0.00000000       0.00000000       0.00000000       0.00000000       0.00000000    -536.68054199
Pt       0.00000000       0.00000000       0.88545455       0.00000000       0.00000000     536.68054199
2
Properties=species:S:1:pos:R:3:forces:R:3 energy=91.9267406466458 pbc="F F F"
Pt       0.00000000       0.00000000       0.00000000       0.00000000       0.00000000    -483.80236816
Pt       0.00000000       0.00000000       0.94424242       0.00000000       0.00000000     483.80236816
2
Properties=species:S:1:pos:R:3:forces:R:3 energy=66.80736417882581 pbc="F F F"
Pt       0.00000000       0.00000000       0.00000000       0.00000000       0.00000000    -367.57839966
Pt       0.00000000       0.00000000       1.00303030       0.00000000       0.00000000     367.57839966
2
Properties=species:S:1:pos:R:3:forces:R:3 energy=48.680514953481286 pbc="F F F"
Pt       0.00000000       0.00000000       0.00000000       0.00000000       0.00000000    -249.69834900
Pt       0.00000000       0.00000000       1.06181818       0.00000000       0.00000000     249.69834900
2
Properties=species:S:1:pos:R:3:forces:R:3 energy=37.62514582010751 pbc="F F F"
Pt       0.00000000       0.00000000       0.00000000       0.00000000       0.00000000    -133.64620972
Pt       0.00000000       0.00000000       1.12060606       0.00000000       0.00000000     133.64620972
2
Properties=species:S:1:pos:R:3:forces:R:3 energy=32.37234358885706 pbc="F F F"
Pt       0.00000000       0.00000000       0.00000000       0.00000000       0.00000000     -48.65505219
Pt       0.00000000       0.00000000       1.17939394       0.00000000       0.00000000      48.65505219
2
Properties=species:S:1:pos:R:3:forces:R:3 energy=30.494839366495366 pbc="F F F"
Pt       0.00000000       0.00000000       0.00000000       0.00000000       0.00000000     -26.72010994
Pt       0.00000000       0.00000000       1.23818182       0.00000000       0.00000000      26.72010994
2
Properties=species:S:1:pos:R:3:forces:R:3 energy=28.479358104740534 pbc="F F F"
Pt       0.00000000       0.00000000       0.00000000       0.00000000       0.00000000     -44.61972427
Pt       0.00000000       0.00000000       1.29696970       0.00000000       0.00000000      44.61972427
2
Properties=species:S:1:pos:R:3:forces:R:3 energy=25.30278477539222 pbc="F F F"
Pt       0.00000000       0.00000000       0.00000000       0.00000000       0.00000000     -59.94857407
Pt       0.00000000       0.00000000       1.35575758       0.00000000       0.00000000      59.94857407
2
Properties=species:S:1:pos:R:3:forces:R:3 energy=21.84258953748191 pbc="F F F"
Pt       0.00000000       0.00000000       0.00000000       0.00000000       0.00000000     -56.83332062
Pt       0.00000000       0.00000000       1.41454545       0.00000000       0.00000000      56.83332062
2
Properties=species:S:1:pos:R:3:forces:R:3 energy=18.430618789751154 pbc="F F F"
Pt       0.00000000       0.00000000       0.00000000       0.00000000       0.00000000     -61.29327393
Pt       0.00000000       0.00000000       1.47333333       0.00000000       0.00000000      61.29327393
2
Properties=species:S:1:pos:R:3:forces:R:3 energy=14.612293359433293 pbc="F F F"
Pt       0.00000000       0.00000000       0.00000000       0.00000000       0.00000000     -66.91061401
Pt       0.00000000       0.00000000       1.53212121       0.00000000       0.00000000      66.91061401
2
Properties=species:S:1:pos:R:3:forces:R:3 energy=10.820178219527588 pbc="F F F"
Pt       0.00000000       0.00000000       0.00000000       0.00000000       0.00000000     -60.45252991
Pt       0.00000000       0.00000000       1.59090909       0.00000000       0.00000000      60.45252991
2
Properties=species:S:1:pos:R:3:forces:R:3 energy=7.580002291158929 pbc="F F F"
Pt       0.00000000       0.00000000       0.00000000       0.00000000       0.00000000     -49.88994217
Pt       0.00000000       0.00000000       1.64969697       0.00000000       0.00000000      49.88994217
2
Properties=species:S:1:pos:R:3:forces:R:3 energy=4.910680059973845 pbc="F F F"
Pt       0.00000000       0.00000000       0.00000000       0.00000000       0.00000000     -41.34170151
Pt       0.00000000       0.00000000       1.70848485       0.00000000       0.00000000      41.34170151
2
Properties=species:S:1:pos:R:3:forces:R:3 energy=2.6806547979712967 pbc="F F F"
Pt       0.00000000       0.00000000       0.00000000       0.00000000       0.00000000     -34.74349594
Pt       0.00000000       0.00000000       1.76727273       0.00000000       0.00000000      34.74349594
2
Properties=species:S:1:pos:R:3:forces:R:3 energy=0.8103470222740927 pbc="F F F"
Pt       0.00000000       0.00000000       0.00000000       0.00000000       0.00000000     -28.95661926
Pt       0.00000000       0.00000000       1.82606061       0.00000000       0.00000000      28.95661926
2
Properties=species:S:1:pos:R:3:forces:R:3 energy=-0.730242352189405 pbc="F F F"
Pt       0.00000000       0.00000000       0.00000000       0.00000000       0.00000000     -23.51070213
Pt       0.00000000       0.00000000       1.88484848       0.00000000       0.00000000      23.51070213
2
Properties=species:S:1:pos:R:3:forces:R:3 energy=-1.9622594161336728 pbc="F F F"
Pt       0.00000000       0.00000000       0.00000000       0.00000000       0.00000000     -18.48942947
Pt       0.00000000       0.00000000       1.94363636       0.00000000       0.00000000      18.48942947
2
Properties=species:S:1:pos:R:3:forces:R:3 energy=-2.9154209717044997 pbc="F F F"
Pt       0.00000000       0.00000000       0.00000000       0.00000000       0.00000000     -14.03889370
Pt       0.00000000       0.00000000       2.00242424       0.00000000       0.00000000      14.03889370
2
Properties=species:S:1:pos:R:3:forces:R:3 energy=-3.624834931958969 pbc="F F F"
Pt       0.00000000       0.00000000       0.00000000       0.00000000       0.00000000     -10.19589901
Pt       0.00000000       0.00000000       2.06121212       0.00000000       0.00000000      10.19589901
2
Properties=species:S:1:pos:R:3:forces:R:3 energy=-4.125609281486272 pbc="F F F"
Pt       0.00000000       0.00000000       0.00000000       0.00000000       0.00000000      -6.93445158
Pt       0.00000000       0.00000000       2.12000000       0.00000000       0.00000000       6.93445158
2
Properties=species:S:1:pos:R:3:forces:R:3 energy=-4.450793023370615 pbc="F F F"
Pt       0.00000000       0.00000000       0.00000000       0.00000000       0.00000000      -4.21564150
Pt       0.00000000       0.00000000       2.17878788       0.00000000       0.00000000       4.21564150
2
Properties=species:S:1:pos:R:3:forces:R:3 energy=-4.631175253189724 pbc="F F F"
Pt       0.00000000       0.00000000       0.00000000       0.00000000       0.00000000      -2.00231647
Pt       0.00000000       0.00000000       2.23757576       0.00000000       0.00000000       2.00231647
2
Properties=species:S:1:pos:R:3:forces:R:3 energy=-4.695410696908315 pbc="F F F"
Pt       0.00000000       0.00000000       0.00000000       0.00000000       0.00000000      -0.25801855
Pt       0.00000000       0.00000000       2.29636364       0.00000000       0.00000000       0.25801855
2
Properties=species:S:1:pos:R:3:forces:R:3 energy=-4.669892425211384 pbc="F F F"
Pt       0.00000000       0.00000000       0.00000000       0.00000000       0.00000000       1.05895674
Pt       0.00000000       0.00000000       2.35515152       0.00000000       0.00000000      -1.05895674
2
Properties=species:S:1:pos:R:3:forces:R:3 energy=-4.578279660852828 pbc="F F F"
Pt       0.00000000       0.00000000       0.00000000       0.00000000       0.00000000       1.99972868
Pt       0.00000000       0.00000000       2.41393939       0.00000000       0.00000000      -1.99972868
2
Properties=species:S:1:pos:R:3:forces:R:3 energy=-4.441008000209848 pbc="F F F"
Pt       0.00000000       0.00000000       0.00000000       0.00000000       0.00000000       2.62229705
Pt       0.00000000       0.00000000       2.47272727       0.00000000       0.00000000      -2.62229705
2
Properties=species:S:1:pos:R:3:forces:R:3 energy=-4.275043017488288 pbc="F F F"
Pt       0.00000000       0.00000000       0.00000000       0.00000000       0.00000000       2.98535872
Pt       0.00000000       0.00000000       2.53151515       0.00000000       0.00000000      -2.98535872
2
Properties=species:S:1:pos:R:3:forces:R:3 energy=-4.093994916409868 pbc="F F F"
Pt       0.00000000       0.00000000       0.00000000       0.00000000       0.00000000       3.14458990
Pt       0.00000000       0.00000000       2.59030303       0.00000000       0.00000000      -3.14458990
2
Properties=species:S:1:pos:R:3:forces:R:3 energy=-3.908267896645895 pbc="F F F"
Pt       0.00000000       0.00000000       0.00000000       0.00000000       0.00000000       3.15312409
Pt       0.00000000       0.00000000       2.64909091       0.00000000       0.00000000      -3.15312409
2
Properties=species:S:1:pos:R:3:forces:R:3 energy=-3.7252223242683753 pbc="F F F"
Pt       0.00000000       0.00000000       0.00000000       0.00000000       0.00000000       3.06141543
Pt       0.00000000       0.00000000       2.70787879       0.00000000       0.00000000      -3.06141543
2
Properties=species:S:1:pos:R:3:forces:R:3 energy=-3.5494165245824103 pbc="F F F"
Pt       0.00000000       0.00000000       0.00000000       0.00000000       0.00000000       2.91338062
Pt       0.00000000       0.00000000       2.76666667       0.00000000       0.00000000      -2.91338062
2
Properties=species:S:1:pos:R:3:forces:R:3 energy=-3.383095803352576 pbc="F F F"
Pt       0.00000000       0.00000000       0.00000000       0.00000000       0.00000000       2.74376988
Pt       0.00000000       0.00000000       2.82545455       0.00000000       0.00000000      -2.74376988
2
Properties=species:S:1:pos:R:3:forces:R:3 energy=-3.2267268475985116 pbc="F F F"
Pt       0.00000000       0.00000000       0.00000000       0.00000000       0.00000000       2.57834291
Pt       0.00000000       0.00000000       2.88424242       0.00000000       0.00000000      -2.57834291
2
Properties=species:S:1:pos:R:3:forces:R:3 energy=-3.079546261039115 pbc="F F F"
Pt       0.00000000       0.00000000       0.00000000       0.00000000       0.00000000       2.43290973
Pt       0.00000000       0.00000000       2.94303030       0.00000000       0.00000000      -2.43290973
2
Properties=species:S:1:pos:R:3:forces:R:3 energy=-2.940181681411699 pbc="F F F"
Pt       0.00000000       0.00000000       0.00000000       0.00000000       0.00000000       2.31242204
Pt       0.00000000       0.00000000       3.00181818       0.00000000       0.00000000      -2.31242204
2
Properties=species:S:1:pos:R:3:forces:R:3 energy=-2.807257824406596 pbc="F F F"
Pt       0.00000000       0.00000000       0.00000000       0.00000000       0.00000000       2.21236134
Pt       0.00000000       0.00000000       3.06060606       0.00000000       0.00000000      -2.21236134
2
Properties=species:S:1:pos:R:3:forces:R:3 energy=-2.6798615005328017 pbc="F F F"
Pt       0.00000000       0.00000000       0.00000000       0.00000000       0.00000000       2.12246895
Pt       0.00000000       0.00000000       3.11939394       0.00000000       0.00000000      -2.12246895
2
Properties=species:S:1:pos:R:3:forces:R:3 energy=-2.5577264240757893 pbc="F F F"
Pt       0.00000000       0.00000000       0.00000000       0.00000000       0.00000000       2.03169894
Pt       0.00000000       0.00000000       3.17818182       0.00000000       0.00000000      -2.03169894
2
Properties=species:S:1:pos:R:3:forces:R:3 energy=-2.441150086225166 pbc="F F F"
Pt       0.00000000       0.00000000       0.00000000       0.00000000       0.00000000       1.93260443
Pt       0.00000000       0.00000000       3.23696970       0.00000000       0.00000000      -1.93260443
2
Properties=species:S:1:pos:R:3:forces:R:3 energy=-2.3306977230667867 pbc="F F F"
Pt       0.00000000       0.00000000       0.00000000       0.00000000       0.00000000       1.82355678
Pt       0.00000000       0.00000000       3.29575758       0.00000000       0.00000000      -1.82355678
2
Properties=species:S:1:pos:R:3:forces:R:3 energy=-2.2268712717217065 pbc="F F F"
Pt       0.00000000       0.00000000       0.00000000       0.00000000       0.00000000       1.70809400
Pt       0.00000000       0.00000000       3.35454545       0.00000000       0.00000000      -1.70809400
2
Properties=species:S:1:pos:R:3:forces:R:3 energy=-2.1298742135994564 pbc="F F F"
Pt       0.00000000       0.00000000       0.00000000       0.00000000       0.00000000       1.59227753
Pt       0.00000000       0.00000000       3.41333333       0.00000000       0.00000000      -1.59227753
2
Properties=species:S:1:pos:R:3:forces:R:3 energy=-2.03955140338517 pbc="F F F"
Pt       0.00000000       0.00000000       0.00000000       0.00000000       0.00000000       1.48183250
Pt       0.00000000       0.00000000       3.47212121       0.00000000       0.00000000      -1.48183250
2
Properties=species:S:1:pos:R:3:forces:R:3 energy=-1.9554657491231646 pbc="F F F"
Pt       0.00000000       0.00000000       0.00000000       0.00000000       0.00000000       1.38057685
Pt       0.00000000       0.00000000       3.53090909       0.00000000       0.00000000      -1.38057685
2
Properties=species:S:1:pos:R:3:forces:R:3 energy=-1.877013638487448 pbc="F F F"
Pt       0.00000000       0.00000000       0.00000000       0.00000000       0.00000000       1.29026031
Pt       0.00000000       0.00000000       3.58969697       0.00000000       0.00000000      -1.29026031
2
Properties=species:S:1:pos:R:3:forces:R:3 energy=-1.803542900125527 pbc="F F F"
Pt       0.00000000       0.00000000       0.00000000       0.00000000       0.00000000       1.21106911
Pt       0.00000000       0.00000000       3.64848485       0.00000000       0.00000000      -1.21106911
2
Properties=species:S:1:pos:R:3:forces:R:3 energy=-1.7344229145597734 pbc="F F F"
Pt       0.00000000       0.00000000       0.00000000       0.00000000       0.00000000       1.14197659
Pt       0.00000000       0.00000000       3.70727273       0.00000000       0.00000000      -1.14197659
2
Properties=species:S:1:pos:R:3:forces:R:3 energy=-1.6691163445016433 pbc="F F F"
Pt       0.00000000       0.00000000       0.00000000       0.00000000       0.00000000       1.08086896
Pt       0.00000000       0.00000000       3.76606061       0.00000000       0.00000000      -1.08086896
2
Properties=species:S:1:pos:R:3:forces:R:3 energy=-1.60724137477211 pbc="F F F"
Pt       0.00000000       0.00000000       0.00000000       0.00000000       0.00000000       1.02470458
Pt       0.00000000       0.00000000       3.82484848       0.00000000       0.00000000      -1.02470458
2
Properties=species:S:1:pos:R:3:forces:R:3 energy=-1.5486085448043139 pbc="F F F"
Pt       0.00000000       0.00000000       0.00000000       0.00000000       0.00000000       0.96994179
Pt       0.00000000       0.00000000       3.88363636       0.00000000       0.00000000      -0.96994179
2
Properties=species:S:1:pos:R:3:forces:R:3 energy=-1.4932387187360148 pbc="F F F"
Pt       0.00000000       0.00000000       0.00000000       0.00000000       0.00000000       0.91322541
Pt       0.00000000       0.00000000       3.94242424       0.00000000       0.00000000      -0.91322541
2
Properties=species:S:1:pos:R:3:forces:R:3 energy=-1.4413237990290644 pbc="F F F"
Pt       0.00000000       0.00000000       0.00000000       0.00000000       0.00000000       0.85207891
Pt       0.00000000       0.00000000       4.00121212       0.00000000       0.00000000      -0.85207891
2
Properties=species:S:1:pos:R:3:forces:R:3 energy=-1.393165306342841 pbc="F F F"
Pt       0.00000000       0.00000000       0.00000000       0.00000000       0.00000000       0.78535354
Pt       0.00000000       0.00000000       4.06000000       0.00000000       0.00000000      -0.78535354
2
Properties=species:S:1:pos:R:3:forces:R:3 energy=-1.3490894760095595 pbc="F F F"
Pt       0.00000000       0.00000000       0.00000000       0.00000000       0.00000000       0.71336913
Pt       0.00000000       0.00000000       4.11878788       0.00000000       0.00000000      -0.71336913
2
Properties=species:S:1:pos:R:3:forces:R:3 energy=-1.3093622281327308 pbc="F F F"
Pt       0.00000000       0.00000000       0.00000000       0.00000000       0.00000000       0.63773906
Pt       0.00000000       0.00000000       4.17757576       0.00000000       0.00000000      -0.63773906
2
Properties=species:S:1:pos:R:3:forces:R:3 energy=-1.2741274255106878 pbc="F F F"
Pt       0.00000000       0.00000000       0.00000000       0.00000000       0.00000000       0.56103420
Pt       0.00000000       0.00000000       4.23636364       0.00000000       0.00000000      -0.56103420
2
Properties=species:S:1:pos:R:3:forces:R:3 energy=-1.2433578279334268 pbc="F F F"
Pt       0.00000000       0.00000000       0.00000000       0.00000000       0.00000000       0.48635370
Pt       0.00000000       0.00000000       4.29515152       0.00000000       0.00000000      -0.48635370
2
Properties=species:S:1:pos:R:3:forces:R:3 energy=-1.2168424338231596 pbc="F F F"
Pt       0.00000000       0.00000000       0.00000000       0.00000000       0.00000000       0.41687039
Pt       0.00000000       0.00000000       4.35393939       0.00000000       0.00000000      -0.41687039
2
Properties=species:S:1:pos:R:3:forces:R:3 energy=-1.1941880878077942 pbc="F F F"
Pt       0.00000000       0.00000000       0.00000000       0.00000000       0.00000000       0.35536373
Pt       0.00000000       0.00000000       4.41272727       0.00000000       0.00000000      -0.35536373
2
Properties=species:S:1:pos:R:3:forces:R:3 energy=-1.1748636135006458 pbc="F F F"
Pt       0.00000000       0.00000000       0.00000000       0.00000000       0.00000000       0.30383235
Pt       0.00000000       0.00000000       4.47151515       0.00000000       0.00000000      -0.30383235
2
Properties=species:S:1:pos:R:3:forces:R:3 energy=-1.158250667181791 pbc="F F F"
Pt       0.00000000       0.00000000       0.00000000       0.00000000       0.00000000       0.26316112
Pt       0.00000000       0.00000000       4.53030303       0.00000000       0.00000000      -0.26316112
2
Properties=species:S:1:pos:R:3:forces:R:3 energy=-1.1437160503194925 pbc="F F F"
Pt       0.00000000       0.00000000       0.00000000       0.00000000       0.00000000       0.23297107
Pt       0.00000000       0.00000000       4.58909091       0.00000000       0.00000000      -0.23297107
2
Properties=species:S:1:pos:R:3:forces:R:3 energy=-1.13068447992185 pbc="F F F"
Pt       0.00000000       0.00000000       0.00000000       0.00000000       0.00000000       0.21167359
Pt       0.00000000       0.00000000       4.64787879       0.00000000       0.00000000      -0.21167359
2
Properties=species:S:1:pos:R:3:forces:R:3 energy=-1.1187035532638308 pbc="F F F"
Pt       0.00000000       0.00000000       0.00000000       0.00000000       0.00000000       0.19672734
Pt       0.00000000       0.00000000       4.70666667       0.00000000       0.00000000      -0.19672734
2
Properties=species:S:1:pos:R:3:forces:R:3 energy=-1.1074887899917867 pbc="F F F"
Pt       0.00000000       0.00000000       0.00000000       0.00000000       0.00000000       0.18511571
Pt       0.00000000       0.00000000       4.76545455       0.00000000       0.00000000      -0.18511571
2
Properties=species:S:1:pos:R:3:forces:R:3 energy=-1.0969291747714434 pbc="F F F"
Pt       0.00000000       0.00000000       0.00000000       0.00000000       0.00000000       0.17397352
Pt       0.00000000       0.00000000       4.82424242       0.00000000       0.00000000      -0.17397352
2
Properties=species:S:1:pos:R:3:forces:R:3 energy=-1.0870657934824919 pbc="F F F"
Pt       0.00000000       0.00000000       0.00000000       0.00000000       0.00000000       0.16126393
Pt       0.00000000       0.00000000       4.88303030       0.00000000       0.00000000      -0.16126393
2
Properties=species:S:1:pos:R:3:forces:R:3 energy=-1.0780139182765158 pbc="F F F"
Pt       0.00000000       0.00000000       0.00000000       0.00000000       0.00000000       0.14631097
Pt       0.00000000       0.00000000       4.94181818       0.00000000       0.00000000      -0.14631097
2
Properties=species:S:1:pos:R:3:forces:R:3 energy=-1.0698906776325416 pbc="F F F"
Pt       0.00000000       0.00000000       0.00000000       0.00000000       0.00000000       0.12995568
Pt       0.00000000       0.00000000       5.00060606       0.00000000       0.00000000      -0.12995568
2
Properties=species:S:1:pos:R:3:forces:R:3 energy=-1.0627245955132052 pbc="F F F"
Pt       0.00000000       0.00000000       0.00000000       0.00000000       0.00000000       0.11407608
Pt       0.00000000       0.00000000       5.05939394       0.00000000       0.00000000      -0.11407608
2
Properties=species:S:1:pos:R:3:forces:R:3 energy=-1.0564312219845275 pbc="F F F"
Pt       0.00000000       0.00000000       0.00000000       0.00000000       0.00000000       0.10054084
Pt       0.00000000       0.00000000       5.11818182       0.00000000       0.00000000      -0.10054084
2
Properties=species:S:1:pos:R:3:forces:R:3 energy=-1.0508450207009346 pbc="F F F"
Pt       0.00000000       0.00000000       0.00000000       0.00000000       0.00000000       0.08993967
Pt       0.00000000       0.00000000       5.17696970       0.00000000       0.00000000      -0.08993967
2
Properties=species:S:1:pos:R:3:forces:R:3 energy=-1.0458255016029128 pbc="F F F"
Pt       0.00000000       0.00000000       0.00000000       0.00000000       0.00000000       0.08088784
Pt       0.00000000       0.00000000       5.23575758       0.00000000       0.00000000      -0.08088784
2
Properties=species:S:1:pos:R:3:forces:R:3 energy=-1.0413536406414114 pbc="F F F"
Pt       0.00000000       0.00000000       0.00000000       0.00000000       0.00000000       0.07094677
Pt       0.00000000       0.00000000       5.29454545       0.00000000       0.00000000      -0.07094677
2
Properties=species:S:1:pos:R:3:forces:R:3 energy=-1.0375040806307079 pbc="F F F"
Pt       0.00000000       0.00000000       0.00000000       0.00000000       0.00000000       0.06024569
Pt       0.00000000       0.00000000       5.35333333       0.00000000       0.00000000      -0.06024569
2
Properties=species:S:1:pos:R:3:forces:R:3 energy=-1.034145315925409 pbc="F F F"
Pt       0.00000000       0.00000000       0.00000000       0.00000000       0.00000000       0.05599874
Pt       0.00000000       0.00000000       5.41212121       0.00000000       0.00000000      -0.05599874
2
Properties=species:S:1:pos:R:3:forces:R:3 energy=-1.030673167375505 pbc="F F F"
Pt       0.00000000       0.00000000       0.00000000       0.00000000       0.00000000       0.06328945
Pt       0.00000000       0.00000000       5.47090909       0.00000000       0.00000000      -0.06328945
2
Properties=species:S:1:pos:R:3:forces:R:3 energy=-1.0267988206706526 pbc="F F F"
Pt       0.00000000       0.00000000       0.00000000       0.00000000       0.00000000       0.06612135
Pt       0.00000000       0.00000000       5.52969697       0.00000000       0.00000000      -0.06612135
2
Properties=species:S:1:pos:R:3:forces:R:3 energy=-1.0231586016551175 pbc="F F F"
Pt       0.00000000       0.00000000       0.00000000       0.00000000       0.00000000       0.05665685
Pt       0.00000000       0.00000000       5.58848485       0.00000000       0.00000000      -0.05665685
2
Properties=species:S:1:pos:R:3:forces:R:3 energy=-1.0201047402612804 pbc="F F F"
Pt       0.00000000       0.00000000       0.00000000       0.00000000       0.00000000       0.04855296
Pt       0.00000000       0.00000000       5.64727273       0.00000000       0.00000000      -0.04855296
2
Properties=species:S:1:pos:R:3:forces:R:3 energy=-1.0172880488812313 pbc="F F F"
Pt       0.00000000       0.00000000       0.00000000       0.00000000       0.00000000       0.04797824
Pt       0.00000000       0.00000000       5.70606061       0.00000000       0.00000000      -0.04797824
2
Properties=species:S:1:pos:R:3:forces:R:3 energy=-1.014586720747479 pbc="F F F"
Pt       0.00000000       0.00000000       0.00000000       0.00000000       0.00000000       0.04077201
Pt       0.00000000       0.00000000       5.76484848       0.00000000       0.00000000      -0.04077201
2
Properties=species:S:1:pos:R:3:forces:R:3 energy=-1.0128417455034369 pbc="F F F"
Pt       0.00000000       0.00000000       0.00000000       0.00000000       0.00000000       0.01751001
Pt       0.00000000       0.00000000       5.82363636       0.00000000       0.00000000      -0.01751001
2
Properties=species:S:1:pos:R:3:forces:R:3 energy=-1.012335208165993 pbc="F F F"
Pt       0.00000000       0.00000000       0.00000000       0.00000000       0.00000000       0.00304682
Pt       0.00000000       0.00000000       5.88242424       0.00000000       0.00000000      -0.00304682
2
Properties=species:S:1:pos:R:3:forces:R:3 energy=-1.012158052946934 pbc="F F F"
Pt       0.00000000       0.00000000       0.00000000       0.00000000       0.00000000       0.00443618
Pt       0.00000000       0.00000000       5.94121212       0.00000000       0.00000000      -0.00443618
2
Properties=species:S:1:pos:R:3:forces:R:3 energy=-1.0118079439792382 pbc="F F F"
Pt       0.00000000       0.00000000       0.00000000       0.00000000       0.00000000       0.00667370
Pt       0.00000000       0.00000000       6.00000000       0.00000000       0.00000000      -0.00667370
