2
Properties=species:S:1:pos:R:3:forces:R:3 energy=7528.56402449633 pbc="F F F"
Rh       0.00000000       0.00000000       0.00000000       0.00000000       0.00000000 -123077.14843750
Rh       0.00000000       0.00000000       0.18000000       0.00000000       0.00000000  123077.14843750
2
Properties=species:S:1:pos:R:3:forces:R:3 energy=3138.8870225432042 pbc="F F F"
Rh       0.00000000       0.00000000       0.00000000       0.00000000       0.00000000  -42758.87890625
Rh       0.00000000       0.00000000       0.23878788       0.00000000       0.00000000   42758.87890625
2
Properties=species:S:1:pos:R:3:forces:R:3 energy=1493.5521836823525 pbc="F F F"
Rh       0.00000000       0.00000000       0.00000000       0.00000000       0.00000000  -17512.90039062
Rh       0.00000000       0.00000000       0.29757576       0.00000000       0.00000000   17512.90039062
2
Properties=species:S:1:pos:R:3:forces:R:3 energy=786.5408311496255 pbc="F F F"
Rh       0.00000000       0.00000000       0.00000000       0.00000000       0.00000000   -7952.34619141
Rh       0.00000000       0.00000000       0.35636364       0.00000000       0.00000000    7952.34619141
2
Properties=species:S:1:pos:R:3:forces:R:3 energy=454.5954881383831 pbc="F F F"
Rh       0.00000000       0.00000000       0.00000000       0.00000000       0.00000000   -3882.47631836
Rh       0.00000000       0.00000000       0.41515152       0.00000000       0.00000000    3882.47631836
2
Properties=species:S:1:pos:R:3:forces:R:3 energy=288.1015306378588 pbc="F F F"
Rh       0.00000000       0.00000000       0.00000000       0.00000000       0.00000000   -2012.06738281
Rh       0.00000000       0.00000000       0.47393939       0.00000000       0.00000000    2012.06738281
2
Properties=species:S:1:pos:R:3:forces:R:3 energy=199.56132376669296 pbc="F F F"
Rh       0.00000000       0.00000000       0.00000000       0.00000000       0.00000000   -1105.16149902
Rh       0.00000000       0.00000000       0.53272727       0.00000000       0.00000000    1105.16149902
2
Properties=species:S:1:pos:R:3:forces:R:3 energy=149.52361936227595 pbc="F F F"
Rh       0.00000000       0.00000000       0.00000000       0.00000000       0.00000000    -647.74847412
Rh       0.00000000       0.00000000       0.59151515       0.00000000       0.00000000     647.74847412
2
Properties=species:S:1:pos:R:3:forces:R:3 energy=119.08118324538455 pbc="F F F"
Rh       0.00000000       0.00000000       0.00000000       0.00000000       0.00000000    -414.50283813
Rh       0.00000000       0.00000000       0.65030303       0.00000000       0.00000000     414.50283813
2
Properties=species:S:1:pos:R:3:forces:R:3 energy=98.62108514350973 pbc="F F F"
Rh       0.00000000       0.00000000       0.00000000       0.00000000       0.00000000    -293.64151001
Rh       0.00000000       0.00000000       0.70909091       0.00000000       0.00000000     293.64151001
2
Properties=species:S:1:pos:R:3:forces:R:3 energy=83.50454639547067 pbc="F F F"
Rh       0.00000000       0.00000000       0.00000000       0.00000000       0.00000000    -226.80410767
Rh       0.00000000       0.00000000       0.76787879       0.00000000       0.00000000     226.80410767
2
Properties=species:S:1:pos:R:3:forces:R:3 energy=71.59381067895366 pbc="F F F"
Rh       0.00000000       0.00000000       0.00000000       0.00000000       0.00000000    -178.87896729
Rh       0.00000000       0.00000000       0.82666667       0.00000000       0.00000000     178.87896729
2
Properties=species:S:1:pos:R:3:forces:R:3 energy=62.276249107876296 pbc="F F F"
Rh       0.00000000       0.00000000       0.00000000       0.00000000       0.00000000    -141.89903259
Rh       0.00000000       0.00000000       0.88545455       0.00000000       0.00000000     141.89903259
2
Properties=species:S:1:pos:R:3:forces:R:3 energy=54.44485946195166 pbc="F F F"
Rh       0.00000000       0.00000000       0.00000000       0.00000000       0.00000000    -128.24771118
Rh       0.00000000       0.00000000       0.94424242       0.00000000       0.00000000     128.24771118
2
Properties=species:S:1:pos:R:3:forces:R:3 energy=47.03876306354537 pbc="F F F"
Rh       0.00000000       0.00000000       0.00000000       0.00000000       0.00000000    -123.14624786
Rh       0.00000000       0.00000000       1.00303030       0.00000000       0.00000000     123.14624786
2
Properties=species:S:1:pos:R:3:forces:R:3 energy=39.98888346327051 pbc="F F F"
Rh       0.00000000       0.00000000       0.00000000       0.00000000       0.00000000    -118.23126984
Rh       0.00000000       0.00000000       1.06181818       0.00000000       0.00000000     118.23126984
2
Properties=species:S:1:pos:R:3:forces:R:3 energy=33.07657754867826 pbc="F F F"
Rh       0.00000000       0.00000000       0.00000000       0.00000000       0.00000000    -115.00070953
Rh       0.00000000       0.00000000       1.12060606       0.00000000       0.00000000     115.00070953
2
Properties=species:S:1:pos:R:3:forces:R:3 energy=26.750423314669575 pbc="F F F"
Rh       0.00000000       0.00000000       0.00000000       0.00000000       0.00000000     -98.16909790
Rh       0.00000000       0.00000000       1.17939394       0.00000000       0.00000000      98.16909790
2
Properties=species:S:1:pos:R:3:forces:R:3 energy=21.574103469452275 pbc="F F F"
Rh       0.00000000       0.00000000       0.00000000       0.00000000       0.00000000     -79.51734924
Rh       0.00000000       0.00000000       1.23818182       0.00000000       0.00000000      79.51734924
2
Properties=species:S:1:pos:R:3:forces:R:3 energy=17.15956045634158 pbc="F F F"
Rh       0.00000000       0.00000000       0.00000000       0.00000000       0.00000000     -71.92103577
Rh       0.00000000       0.00000000       1.29696970       0.00000000       0.00000000      71.92103577
2
Properties=species:S:1:pos:R:3:forces:R:3 energy=13.13448000594618 pbc="F F F"
Rh       0.00000000       0.00000000       0.00000000       0.00000000       0.00000000     -63.93792343
Rh       0.00000000       0.00000000       1.35575758       0.00000000       0.00000000      63.93792343
2
Properties=species:S:1:pos:R:3:forces:R:3 energy=9.753521992723584 pbc="F F F"
Rh       0.00000000       0.00000000       0.00000000       0.00000000       0.00000000     -50.81381607
Rh       0.00000000       0.00000000       1.41454545       0.00000000       0.00000000      50.81381607
2
Properties=species:S:1:pos:R:3:forces:R:3 energy=7.095285639899173 pbc="F F F"
Rh       0.00000000       0.00000000       0.00000000       0.00000000       0.00000000     -40.68150711
Rh       0.00000000       0.00000000       1.47333333       0.00000000       0.00000000      40.68150711
2
Properties=species:S:1:pos:R:3:forces:R:3 energy=4.857348683735831 pbc="F F F"
Rh       0.00000000       0.00000000       0.00000000       0.00000000       0.00000000     -36.05855942
Rh       0.00000000       0.00000000       1.53212121       0.00000000       0.00000000      36.05855942
2
Properties=species:S:1:pos:R:3:forces:R:3 energy=2.8294365315896695 pbc="F F F"
Rh       0.00000000       0.00000000       0.00000000       0.00000000       0.00000000     -32.90401459
Rh       0.00000000       0.00000000       1.59090909       0.00000000       0.00000000      32.90401459
2
Properties=species:S:1:pos:R:3:forces:R:3 energy=0.9998054271883662 pbc="F F F"
Rh       0.00000000       0.00000000       0.00000000       0.00000000       0.00000000     -29.25047112
Rh       0.00000000       0.00000000       1.64969697       0.00000000       0.00000000      29.25047112
2
Properties=species:S:1:pos:R:3:forces:R:3 energy=-0.6041579111027825 pbc="F F F"
Rh       0.00000000       0.00000000       0.00000000       0.00000000       0.00000000     -25.31346130
Rh       0.00000000       0.00000000       1.70848485       0.00000000       0.00000000      25.31346130
2
Properties=species:S:1:pos:R:3:forces:R:3 energy=-1.979430297686903 pbc="F F F"
Rh       0.00000000       0.00000000       0.00000000       0.00000000       0.00000000     -21.51615334
Rh       0.00000000       0.00000000       1.76727273       0.00000000       0.00000000      21.51615334
2
Properties=species:S:1:pos:R:3:forces:R:3 energy=-3.1388624963134735 pbc="F F F"
Rh       0.00000000       0.00000000       0.00000000       0.00000000       0.00000000     -17.96243286
Rh       0.00000000       0.00000000       1.82606061       0.00000000       0.00000000      17.96243286
2
Properties=species:S:1:pos:R:3:forces:R:3 energy=-4.093833389138265 pbc="F F F"
Rh       0.00000000       0.00000000       0.00000000       0.00000000       0.00000000     -14.53551197
Rh       0.00000000       0.00000000       1.88484848       0.00000000       0.00000000      14.53551197
2
Properties=species:S:1:pos:R:3:forces:R:3 energy=-4.848449797559209 pbc="F F F"
Rh       0.00000000       0.00000000       0.00000000       0.00000000       0.00000000     -11.14359951
Rh       0.00000000       0.00000000       1.94363636       0.00000000       0.00000000      11.14359951
2
Properties=species:S:1:pos:R:3:forces:R:3 energy=-5.4060879337655745 pbc="F F F"
Rh       0.00000000       0.00000000       0.00000000       0.00000000       0.00000000      -7.85914564
Rh       0.00000000       0.00000000       2.00242424       0.00000000       0.00000000       7.85914564
2
Properties=species:S:1:pos:R:3:forces:R:3 energy=-5.777996004582216 pbc="F F F"
Rh       0.00000000       0.00000000       0.00000000       0.00000000       0.00000000      -4.85454607
Rh       0.00000000       0.00000000       2.06121212       0.00000000       0.00000000       4.85454607
2
Properties=species:S:1:pos:R:3:forces:R:3 energy=-5.98537147053828 pbc="F F F"
Rh       0.00000000       0.00000000       0.00000000       0.00000000       0.00000000      -2.28155780
Rh       0.00000000       0.00000000       2.12000000       0.00000000       0.00000000       2.28155780
2
Properties=species:S:1:pos:R:3:forces:R:3 energy=-6.056429030562813 pbc="F F F"
Rh       0.00000000       0.00000000       0.00000000       0.00000000       0.00000000      -0.22602589
Rh       0.00000000       0.00000000       2.17878788       0.00000000       0.00000000       0.22602589
2
Properties=species:S:1:pos:R:3:forces:R:3 energy=-6.022680375531226 pbc="F F F"
Rh       0.00000000       0.00000000       0.00000000       0.00000000       0.00000000       1.28328967
Rh       0.00000000       0.00000000       2.23757576       0.00000000       0.00000000      -1.28328967
2
Properties=species:S:1:pos:R:3:forces:R:3 energy=-5.915934833584216 pbc="F F F"
Rh       0.00000000       0.00000000       0.00000000       0.00000000       0.00000000       2.26381660
Rh       0.00000000       0.00000000       2.29636364       0.00000000       0.00000000      -2.26381660
2
Properties=species:S:1:pos:R:3:forces:R:3 energy=-5.765750141085154 pbc="F F F"
Rh       0.00000000       0.00000000       0.00000000       0.00000000       0.00000000       2.77388930
Rh       0.00000000       0.00000000       2.35515152       0.00000000       0.00000000      -2.77388930
2
Properties=species:S:1:pos:R:3:forces:R:3 energy=-5.59725012847622 pbc="F F F"
Rh       0.00000000       0.00000000       0.00000000       0.00000000       0.00000000       2.90407562
Rh       0.00000000       0.00000000       2.41393939       0.00000000       0.00000000      -2.90407562
2
Properties=species:S:1:pos:R:3:forces:R:3 energy=-5.429585154977986 pbc="F F F"
Rh       0.00000000       0.00000000       0.00000000       0.00000000       0.00000000       2.76490617
Rh       0.00000000       0.00000000       2.47272727       0.00000000       0.00000000      -2.76490617
2
Properties=species:S:1:pos:R:3:forces:R:3 energy=-5.275103886540774 pbc="F F F"
Rh       0.00000000       0.00000000       0.00000000       0.00000000       0.00000000       2.47552800
Rh       0.00000000       0.00000000       2.53151515       0.00000000       0.00000000      -2.47552800
2
Properties=species:S:1:pos:R:3:forces:R:3 energy=-5.139196806723305 pbc="F F F"
Rh       0.00000000       0.00000000       0.00000000       0.00000000       0.00000000       2.15113115
Rh       0.00000000       0.00000000       2.59030303       0.00000000       0.00000000      -2.15113115
2
Properties=species:S:1:pos:R:3:forces:R:3 energy=-5.0209689990641495 pbc="F F F"
Rh       0.00000000       0.00000000       0.00000000       0.00000000       0.00000000       1.88759983
Rh       0.00000000       0.00000000       2.64909091       0.00000000       0.00000000      -1.88759983
2
Properties=species:S:1:pos:R:3:forces:R:3 energy=-4.914848474768022 pbc="F F F"
Rh       0.00000000       0.00000000       0.00000000       0.00000000       0.00000000       1.74523449
Rh       0.00000000       0.00000000       2.70787879       0.00000000       0.00000000      -1.74523449
2
Properties=species:S:1:pos:R:3:forces:R:3 energy=-4.813297386867345 pbc="F F F"
Rh       0.00000000       0.00000000       0.00000000       0.00000000       0.00000000       1.72679961
Rh       0.00000000       0.00000000       2.76666667       0.00000000       0.00000000      -1.72679961
2
Properties=species:S:1:pos:R:3:forces:R:3 energy=-4.710503243563217 pbc="F F F"
Rh       0.00000000       0.00000000       0.00000000       0.00000000       0.00000000       1.77515769
Rh       0.00000000       0.00000000       2.82545455       0.00000000       0.00000000      -1.77515769
2
Properties=species:S:1:pos:R:3:forces:R:3 energy=-4.604629691620903 pbc="F F F"
Rh       0.00000000       0.00000000       0.00000000       0.00000000       0.00000000       1.82219279
Rh       0.00000000       0.00000000       2.88424242       0.00000000       0.00000000      -1.82219279
2
Properties=species:S:1:pos:R:3:forces:R:3 energy=-4.4970861708688945 pbc="F F F"
Rh       0.00000000       0.00000000       0.00000000       0.00000000       0.00000000       1.82792127
Rh       0.00000000       0.00000000       2.94303030       0.00000000       0.00000000      -1.82792127
2
Properties=species:S:1:pos:R:3:forces:R:3 energy=-4.390755000300577 pbc="F F F"
Rh       0.00000000       0.00000000       0.00000000       0.00000000       0.00000000       1.78109753
Rh       0.00000000       0.00000000       3.00181818       0.00000000       0.00000000      -1.78109753
2
Properties=species:S:1:pos:R:3:forces:R:3 energy=-4.288495901985798 pbc="F F F"
Rh       0.00000000       0.00000000       0.00000000       0.00000000       0.00000000       1.69271827
Rh       0.00000000       0.00000000       3.06060606       0.00000000       0.00000000      -1.69271827
2
Properties=species:S:1:pos:R:3:forces:R:3 energy=-4.192065180848752 pbc="F F F"
Rh       0.00000000       0.00000000       0.00000000       0.00000000       0.00000000       1.58737350
Rh       0.00000000       0.00000000       3.11939394       0.00000000       0.00000000      -1.58737350
2
Properties=species:S:1:pos:R:3:forces:R:3 energy=-4.101707836989505 pbc="F F F"
Rh       0.00000000       0.00000000       0.00000000       0.00000000       0.00000000       1.48928714
Rh       0.00000000       0.00000000       3.17818182       0.00000000       0.00000000      -1.48928714
2
Properties=species:S:1:pos:R:3:forces:R:3 energy=-4.016576538810076 pbc="F F F"
Rh       0.00000000       0.00000000       0.00000000       0.00000000       0.00000000       1.41025412
Rh       0.00000000       0.00000000       3.23696970       0.00000000       0.00000000      -1.41025412
2
Properties=species:S:1:pos:R:3:forces:R:3 energy=-3.935584467712738 pbc="F F F"
Rh       0.00000000       0.00000000       0.00000000       0.00000000       0.00000000       1.34685326
Rh       0.00000000       0.00000000       3.29575758       0.00000000       0.00000000      -1.34685326
2
Properties=species:S:1:pos:R:3:forces:R:3 energy=-3.8581583280326894 pbc="F F F"
Rh       0.00000000       0.00000000       0.00000000       0.00000000       0.00000000       1.28659225
Rh       0.00000000       0.00000000       3.35454545       0.00000000       0.00000000      -1.28659225
2
Properties=species:S:1:pos:R:3:forces:R:3 energy=-3.7844948717661206 pbc="F F F"
Rh       0.00000000       0.00000000       0.00000000       0.00000000       0.00000000       1.21725106
Rh       0.00000000       0.00000000       3.41333333       0.00000000       0.00000000      -1.21725106
2
Properties=species:S:1:pos:R:3:forces:R:3 energy=-3.7153223579500287 pbc="F F F"
Rh       0.00000000       0.00000000       0.00000000       0.00000000       0.00000000       1.13374865
Rh       0.00000000       0.00000000       3.47212121       0.00000000       0.00000000      -1.13374865
2
Properties=species:S:1:pos:R:3:forces:R:3 energy=-3.651404192859013 pbc="F F F"
Rh       0.00000000       0.00000000       0.00000000       0.00000000       0.00000000       1.03972471
Rh       0.00000000       0.00000000       3.53090909       0.00000000       0.00000000      -1.03972471
2
Properties=species:S:1:pos:R:3:forces:R:3 energy=-3.5931014572551985 pbc="F F F"
Rh       0.00000000       0.00000000       0.00000000       0.00000000       0.00000000       0.94441533
Rh       0.00000000       0.00000000       3.58969697       0.00000000       0.00000000      -0.94441533
2
Properties=species:S:1:pos:R:3:forces:R:3 energy=-3.540193128444209 pbc="F F F"
Rh       0.00000000       0.00000000       0.00000000       0.00000000       0.00000000       0.85768026
Rh       0.00000000       0.00000000       3.64848485       0.00000000       0.00000000      -0.85768026
2
Properties=species:S:1:pos:R:3:forces:R:3 energy=-3.4919593263731405 pbc="F F F"
Rh       0.00000000       0.00000000       0.00000000       0.00000000       0.00000000       0.78609556
Rh       0.00000000       0.00000000       3.70727273       0.00000000       0.00000000      -0.78609556
2
Properties=species:S:1:pos:R:3:forces:R:3 energy=-3.447430473717011 pbc="F F F"
Rh       0.00000000       0.00000000       0.00000000       0.00000000       0.00000000       0.73154616
Rh       0.00000000       0.00000000       3.76606061       0.00000000       0.00000000      -0.73154616
2
Properties=species:S:1:pos:R:3:forces:R:3 energy=-3.405652588401116 pbc="F F F"
Rh       0.00000000       0.00000000       0.00000000       0.00000000       0.00000000       0.69195682
Rh       0.00000000       0.00000000       3.82484848       0.00000000       0.00000000      -0.69195682
2
Properties=species:S:1:pos:R:3:forces:R:3 energy=-3.3658648927711723 pbc="F F F"
Rh       0.00000000       0.00000000       0.00000000       0.00000000       0.00000000       0.66298759
Rh       0.00000000       0.00000000       3.88363636       0.00000000       0.00000000      -0.66298759
2
Properties=species:S:1:pos:R:3:forces:R:3 energy=-3.327588505304741 pbc="F F F"
Rh       0.00000000       0.00000000       0.00000000       0.00000000       0.00000000       0.63978386
Rh       0.00000000       0.00000000       3.94242424       0.00000000       0.00000000      -0.63978386
2
Properties=species:S:1:pos:R:3:forces:R:3 energy=-3.2906114012338152 pbc="F F F"
Rh       0.00000000       0.00000000       0.00000000       0.00000000       0.00000000       0.61821264
Rh       0.00000000       0.00000000       4.00121212       0.00000000       0.00000000      -0.61821264
2
Properties=species:S:1:pos:R:3:forces:R:3 energy=-3.2549252189500666 pbc="F F F"
Rh       0.00000000       0.00000000       0.00000000       0.00000000       0.00000000       0.59550458
Rh       0.00000000       0.00000000       4.06000000       0.00000000       0.00000000      -0.59550458
2
Properties=species:S:1:pos:R:3:forces:R:3 energy=-3.2206428598752366 pbc="F F F"
Rh       0.00000000       0.00000000       0.00000000       0.00000000       0.00000000       0.57037205
Rh       0.00000000       0.00000000       4.11878788       0.00000000       0.00000000      -0.57037205
2
Properties=species:S:1:pos:R:3:forces:R:3 energy=-3.1879128581773752 pbc="F F F"
Rh       0.00000000       0.00000000       0.00000000       0.00000000       0.00000000       0.54271978
Rh       0.00000000       0.00000000       4.17757576       0.00000000       0.00000000      -0.54271978
2
Properties=species:S:1:pos:R:3:forces:R:3 energy=-3.156868633291452 pbc="F F F"
Rh       0.00000000       0.00000000       0.00000000       0.00000000       0.00000000       0.51317847
Rh       0.00000000       0.00000000       4.23636364       0.00000000       0.00000000      -0.51317847
2
Properties=species:S:1:pos:R:3:forces:R:3 energy=-3.127594727179885 pbc="F F F"
Rh       0.00000000       0.00000000       0.00000000       0.00000000       0.00000000       0.48261309
Rh       0.00000000       0.00000000       4.29515152       0.00000000       0.00000000      -0.48261309
2
Properties=species:S:1:pos:R:3:forces:R:3 energy=-3.100130737071143 pbc="F F F"
Rh       0.00000000       0.00000000       0.00000000       0.00000000       0.00000000       0.45175952
Rh       0.00000000       0.00000000       4.35393939       0.00000000       0.00000000      -0.45175952
2
Properties=species:S:1:pos:R:3:forces:R:3 energy=-3.0744774296435233 pbc="F F F"
Rh       0.00000000       0.00000000       0.00000000       0.00000000       0.00000000       0.42101234
Rh       0.00000000       0.00000000       4.41272727       0.00000000       0.00000000      -0.42101234
2
Properties=species:S:1:pos:R:3:forces:R:3 energy=-3.0506267500878965 pbc="F F F"
Rh       0.00000000       0.00000000       0.00000000       0.00000000       0.00000000       0.39039636
Rh       0.00000000       0.00000000       4.47151515       0.00000000       0.00000000      -0.39039636
2
Properties=species:S:1:pos:R:3:forces:R:3 energy=-3.0285786524562535 pbc="F F F"
Rh       0.00000000       0.00000000       0.00000000       0.00000000       0.00000000       0.35962716
Rh       0.00000000       0.00000000       4.53030303       0.00000000       0.00000000      -0.35962716
2
Properties=species:S:1:pos:R:3:forces:R:3 energy=-3.008355849935389 pbc="F F F"
Rh       0.00000000       0.00000000       0.00000000       0.00000000       0.00000000       0.32822329
Rh       0.00000000       0.00000000       4.58909091       0.00000000       0.00000000      -0.32822329
2
Properties=species:S:1:pos:R:3:forces:R:3 energy=-2.99001099357877 pbc="F F F"
Rh       0.00000000       0.00000000       0.00000000       0.00000000       0.00000000       0.29565185
Rh       0.00000000       0.00000000       4.64787879       0.00000000       0.00000000      -0.29565185
2
Properties=species:S:1:pos:R:3:forces:R:3 energy=-2.9736260244069816 pbc="F F F"
Rh       0.00000000       0.00000000       0.00000000       0.00000000       0.00000000       0.26146325
Rh       0.00000000       0.00000000       4.70666667       0.00000000       0.00000000      -0.26146325
2
Properties=species:S:1:pos:R:3:forces:R:3 energy=-2.959305020850352 pbc="F F F"
Rh       0.00000000       0.00000000       0.00000000       0.00000000       0.00000000       0.22545795
Rh       0.00000000       0.00000000       4.76545455       0.00000000       0.00000000      -0.22545795
2
Properties=species:S:1:pos:R:3:forces:R:3 energy=-2.9471492923429543 pbc="F F F"
Rh       0.00000000       0.00000000       0.00000000       0.00000000       0.00000000       0.18783997
Rh       0.00000000       0.00000000       4.82424242       0.00000000       0.00000000      -0.18783997
2
Properties=species:S:1:pos:R:3:forces:R:3 energy=-2.9372354416455035 pbc="F F F"
Rh       0.00000000       0.00000000       0.00000000       0.00000000       0.00000000       0.14945079
Rh       0.00000000       0.00000000       4.88303030       0.00000000       0.00000000      -0.14945079
2
Properties=species:S:1:pos:R:3:forces:R:3 energy=-2.929562340886134 pbc="F F F"
Rh       0.00000000       0.00000000       0.00000000       0.00000000       0.00000000       0.11189184
Rh       0.00000000       0.00000000       4.94181818       0.00000000       0.00000000      -0.11189184
2
Properties=species:S:1:pos:R:3:forces:R:3 energy=-2.9240161663926467 pbc="F F F"
Rh       0.00000000       0.00000000       0.00000000       0.00000000       0.00000000       0.07757019
Rh       0.00000000       0.00000000       5.00060606       0.00000000       0.00000000      -0.07757019
2
Properties=species:S:1:pos:R:3:forces:R:3 energy=-2.920323760517846 pbc="F F F"
Rh       0.00000000       0.00000000       0.00000000       0.00000000       0.00000000       0.04926053
Rh       0.00000000       0.00000000       5.05939394       0.00000000       0.00000000      -0.04926053
2
Properties=species:S:1:pos:R:3:forces:R:3 energy=-2.9180608812551463 pbc="F F F"
Rh       0.00000000       0.00000000       0.00000000       0.00000000       0.00000000       0.02921845
Rh       0.00000000       0.00000000       5.11818182       0.00000000       0.00000000      -0.02921845
2
Properties=species:S:1:pos:R:3:forces:R:3 energy=-2.916715303134561 pbc="F F F"
Rh       0.00000000       0.00000000       0.00000000       0.00000000       0.00000000       0.01792455
Rh       0.00000000       0.00000000       5.17696970       0.00000000       0.00000000      -0.01792455
2
Properties=species:S:1:pos:R:3:forces:R:3 energy=-2.9158209130022885 pbc="F F F"
Rh       0.00000000       0.00000000       0.00000000       0.00000000       0.00000000       0.01333255
Rh       0.00000000       0.00000000       5.23575758       0.00000000       0.00000000      -0.01333255
2
Properties=species:S:1:pos:R:3:forces:R:3 energy=-2.9150885447998403 pbc="F F F"
Rh       0.00000000       0.00000000       0.00000000       0.00000000       0.00000000       0.01182454
Rh       0.00000000       0.00000000       5.29454545       0.00000000       0.00000000      -0.01182454
2
Properties=species:S:1:pos:R:3:forces:R:3 energy=-2.914401919280633 pbc="F F F"
Rh       0.00000000       0.00000000       0.00000000       0.00000000       0.00000000       0.01202613
Rh       0.00000000       0.00000000       5.35333333       0.00000000       0.00000000      -0.01202613
2
Properties=species:S:1:pos:R:3:forces:R:3 energy=-2.9135467814971996 pbc="F F F"
Rh       0.00000000       0.00000000       0.00000000       0.00000000       0.00000000       0.01876826
Rh       0.00000000       0.00000000       5.41212121       0.00000000       0.00000000      -0.01876826
2
Properties=species:S:1:pos:R:3:forces:R:3 energy=-2.911997109027817 pbc="F F F"
Rh       0.00000000       0.00000000       0.00000000       0.00000000       0.00000000       0.03482008
Rh       0.00000000       0.00000000       5.47090909       0.00000000       0.00000000      -0.03482008
2
Properties=species:S:1:pos:R:3:forces:R:3 energy=-2.9095448863176943 pbc="F F F"
Rh       0.00000000       0.00000000       0.00000000       0.00000000       0.00000000       0.04639222
Rh       0.00000000       0.00000000       5.52969697       0.00000000       0.00000000      -0.04639222
2
Properties=species:S:1:pos:R:3:forces:R:3 energy=-2.9068180100213974 pbc="F F F"
Rh       0.00000000       0.00000000       0.00000000       0.00000000       0.00000000       0.04476719
Rh       0.00000000       0.00000000       5.58848485       0.00000000       0.00000000      -0.04476719
2
Properties=species:S:1:pos:R:3:forces:R:3 energy=-2.9043230637503363 pbc="F F F"
Rh       0.00000000       0.00000000       0.00000000       0.00000000       0.00000000       0.04096964
Rh       0.00000000       0.00000000       5.64727273       0.00000000       0.00000000      -0.04096964
2
Properties=species:S:1:pos:R:3:forces:R:3 energy=-2.9018393087298424 pbc="F F F"
Rh       0.00000000       0.00000000       0.00000000       0.00000000       0.00000000       0.04473387
Rh       0.00000000       0.00000000       5.70606061       0.00000000       0.00000000      -0.04473387
2
Properties=species:S:1:pos:R:3:forces:R:3 energy=-2.8990660789404497 pbc="F F F"
Rh       0.00000000       0.00000000       0.00000000       0.00000000       0.00000000       0.04783170
Rh       0.00000000       0.00000000       5.76484848       0.00000000       0.00000000      -0.04783170
2
Properties=species:S:1:pos:R:3:forces:R:3 energy=-2.8964910999990705 pbc="F F F"
Rh       0.00000000       0.00000000       0.00000000       0.00000000       0.00000000       0.03783916
Rh       0.00000000       0.00000000       5.82363636       0.00000000       0.00000000      -0.03783916
2
Properties=species:S:1:pos:R:3:forces:R:3 energy=-2.8946979132810173 pbc="F F F"
Rh       0.00000000       0.00000000       0.00000000       0.00000000       0.00000000       0.02383615
Rh       0.00000000       0.00000000       5.88242424       0.00000000       0.00000000      -0.02383615
2
Properties=species:S:1:pos:R:3:forces:R:3 energy=-2.8935753353485887 pbc="F F F"
Rh       0.00000000       0.00000000       0.00000000       0.00000000       0.00000000       0.01531351
Rh       0.00000000       0.00000000       5.94121212       0.00000000       0.00000000      -0.01531351
2
Properties=species:S:1:pos:R:3:forces:R:3 energy=-2.892791904587837 pbc="F F F"
Rh       0.00000000       0.00000000       0.00000000       0.00000000       0.00000000       0.01216704
Rh       0.00000000       0.00000000       6.00000000       0.00000000       0.00000000      -0.01216704
