2
Properties=species:S:1:pos:R:3:forces:R:3 energy=14664.726539360889 pbc="F F F"
Ta       0.00000000       0.00000000       0.00000000       0.00000000       0.00000000 -254375.70312500
Ta       0.00000000       0.00000000       0.18000000       0.00000000       0.00000000  254375.70312500
2
Properties=species:S:1:pos:R:3:forces:R:3 energy=5774.086890923388 pbc="F F F"
Ta       0.00000000       0.00000000       0.00000000       0.00000000       0.00000000  -84141.39843750
Ta       0.00000000       0.00000000       0.23878788       0.00000000       0.00000000   84141.39843750
2
Properties=species:S:1:pos:R:3:forces:R:3 energy=2604.988746392138 pbc="F F F"
Ta       0.00000000       0.00000000       0.00000000       0.00000000       0.00000000  -32745.31054688
Ta       0.00000000       0.00000000       0.29757576       0.00000000       0.00000000   32745.31054688
2
Properties=species:S:1:pos:R:3:forces:R:3 energy=1312.9781262781185 pbc="F F F"
Ta       0.00000000       0.00000000       0.00000000       0.00000000       0.00000000  -14100.54394531
Ta       0.00000000       0.00000000       0.35636364       0.00000000       0.00000000   14100.54394531
2
Properties=species:S:1:pos:R:3:forces:R:3 energy=737.85941290238 pbc="F F F"
Ta       0.00000000       0.00000000       0.00000000       0.00000000       0.00000000   -6531.69335938
Ta       0.00000000       0.00000000       0.41515152       0.00000000       0.00000000    6531.69335938
2
Properties=species:S:1:pos:R:3:forces:R:3 energy=464.1376111509031 pbc="F F F"
Ta       0.00000000       0.00000000       0.00000000       0.00000000       0.00000000   -3213.20434570
Ta       0.00000000       0.00000000       0.47393939       0.00000000       0.00000000    3213.20434570
2
Properties=species:S:1:pos:R:3:forces:R:3 energy=326.10239387208253 pbc="F F F"
Ta       0.00000000       0.00000000       0.00000000       0.00000000       0.00000000   -1671.72644043
Ta       0.00000000       0.00000000       0.53272727       0.00000000       0.00000000    1671.72644043
2
Properties=species:S:1:pos:R:3:forces:R:3 energy=252.29685189890193 pbc="F F F"
Ta       0.00000000       0.00000000       0.00000000       0.00000000       0.00000000    -926.66790771
Ta       0.00000000       0.00000000       0.59151515       0.00000000       0.00000000     926.66790771
2
Properties=species:S:1:pos:R:3:forces:R:3 energy=210.03205090518955 pbc="F F F"
Ta       0.00000000       0.00000000       0.00000000       0.00000000       0.00000000    -552.17492676
Ta       0.00000000       0.00000000       0.65030303       0.00000000       0.00000000     552.17492676
2
Properties=species:S:1:pos:R:3:forces:R:3 energy=183.89263139387498 pbc="F F F"
Ta       0.00000000       0.00000000       0.00000000       0.00000000       0.00000000    -358.63864136
Ta       0.00000000       0.00000000       0.70909091       0.00000000       0.00000000     358.63864136
2
Properties=species:S:1:pos:R:3:forces:R:3 energy=165.94725792841083 pbc="F F F"
Ta       0.00000000       0.00000000       0.00000000       0.00000000       0.00000000    -264.33880615
Ta       0.00000000       0.00000000       0.76787879       0.00000000       0.00000000     264.33880615
2
Properties=species:S:1:pos:R:3:forces:R:3 energy=151.55297092040612 pbc="F F F"
Ta       0.00000000       0.00000000       0.00000000       0.00000000       0.00000000    -235.29443359
Ta       0.00000000       0.00000000       0.82666667       0.00000000       0.00000000     235.29443359
2
Properties=species:S:1:pos:R:3:forces:R:3 energy=137.11014575191095 pbc="F F F"
Ta       0.00000000       0.00000000       0.00000000       0.00000000       0.00000000    -266.42529297
Ta       0.00000000       0.00000000       0.88545455       0.00000000       0.00000000     266.42529297
2
Properties=species:S:1:pos:R:3:forces:R:3 energy=120.4257740064094 pbc="F F F"
Ta       0.00000000       0.00000000       0.00000000       0.00000000       0.00000000    -297.10263062
Ta       0.00000000       0.00000000       0.94424242       0.00000000       0.00000000     297.10263062
2
Properties=species:S:1:pos:R:3:forces:R:3 energy=103.08318395631431 pbc="F F F"
Ta       0.00000000       0.00000000       0.00000000       0.00000000       0.00000000    -289.96136475
Ta       0.00000000       0.00000000       1.00303030       0.00000000       0.00000000     289.96136475
2
Properties=species:S:1:pos:R:3:forces:R:3 energy=86.58768567289076 pbc="F F F"
Ta       0.00000000       0.00000000       0.00000000       0.00000000       0.00000000    -270.97113037
Ta       0.00000000       0.00000000       1.06181818       0.00000000       0.00000000     270.97113037
2
Properties=species:S:1:pos:R:3:forces:R:3 energy=71.00303041802356 pbc="F F F"
Ta       0.00000000       0.00000000       0.00000000       0.00000000       0.00000000    -261.48846436
Ta       0.00000000       0.00000000       1.12060606       0.00000000       0.00000000     261.48846436
2
Properties=species:S:1:pos:R:3:forces:R:3 energy=55.77152854080376 pbc="F F F"
Ta       0.00000000       0.00000000       0.00000000       0.00000000       0.00000000    -255.56852722
Ta       0.00000000       0.00000000       1.17939394       0.00000000       0.00000000     255.56852722
2
Properties=species:S:1:pos:R:3:forces:R:3 energy=41.17877502893424 pbc="F F F"
Ta       0.00000000       0.00000000       0.00000000       0.00000000       0.00000000    -239.14056396
Ta       0.00000000       0.00000000       1.23818182       0.00000000       0.00000000     239.14056396
2
Properties=species:S:1:pos:R:3:forces:R:3 energy=27.733341548352563 pbc="F F F"
Ta       0.00000000       0.00000000       0.00000000       0.00000000       0.00000000    -218.13049316
Ta       0.00000000       0.00000000       1.29696970       0.00000000       0.00000000     218.13049316
2
Properties=species:S:1:pos:R:3:forces:R:3 energy=15.827012814544796 pbc="F F F"
Ta       0.00000000       0.00000000       0.00000000       0.00000000       0.00000000    -181.58908081
Ta       0.00000000       0.00000000       1.35575758       0.00000000       0.00000000     181.58908081
2
Properties=species:S:1:pos:R:3:forces:R:3 energy=6.90643177287442 pbc="F F F"
Ta       0.00000000       0.00000000       0.00000000       0.00000000       0.00000000    -120.84722900
Ta       0.00000000       0.00000000       1.41454545       0.00000000       0.00000000     120.84722900
2
Properties=species:S:1:pos:R:3:forces:R:3 energy=1.3251999328828852 pbc="F F F"
Ta       0.00000000       0.00000000       0.00000000       0.00000000       0.00000000     -73.09278107
Ta       0.00000000       0.00000000       1.47333333       0.00000000       0.00000000      73.09278107
2
Properties=species:S:1:pos:R:3:forces:R:3 energy=-2.0706709749216077 pbc="F F F"
Ta       0.00000000       0.00000000       0.00000000       0.00000000       0.00000000     -44.78367233
Ta       0.00000000       0.00000000       1.53212121       0.00000000       0.00000000      44.78367233
2
Properties=species:S:1:pos:R:3:forces:R:3 energy=-4.196943279973388 pbc="F F F"
Ta       0.00000000       0.00000000       0.00000000       0.00000000       0.00000000     -29.77772141
Ta       0.00000000       0.00000000       1.59090909       0.00000000       0.00000000      29.77772141
2
Properties=species:S:1:pos:R:3:forces:R:3 energy=-5.793065440936717 pbc="F F F"
Ta       0.00000000       0.00000000       0.00000000       0.00000000       0.00000000     -25.72281837
Ta       0.00000000       0.00000000       1.64969697       0.00000000       0.00000000      25.72281837
2
Properties=species:S:1:pos:R:3:forces:R:3 energy=-7.271699827698758 pbc="F F F"
Ta       0.00000000       0.00000000       0.00000000       0.00000000       0.00000000     -24.44333076
Ta       0.00000000       0.00000000       1.70848485       0.00000000       0.00000000      24.44333076
2
Properties=species:S:1:pos:R:3:forces:R:3 energy=-8.630144090042377 pbc="F F F"
Ta       0.00000000       0.00000000       0.00000000       0.00000000       0.00000000     -21.47215843
Ta       0.00000000       0.00000000       1.76727273       0.00000000       0.00000000      21.47215843
2
Properties=species:S:1:pos:R:3:forces:R:3 energy=-9.775740532016309 pbc="F F F"
Ta       0.00000000       0.00000000       0.00000000       0.00000000       0.00000000     -17.44338608
Ta       0.00000000       0.00000000       1.82606061       0.00000000       0.00000000      17.44338608
2
Properties=species:S:1:pos:R:3:forces:R:3 energy=-10.682170422944829 pbc="F F F"
Ta       0.00000000       0.00000000       0.00000000       0.00000000       0.00000000     -13.44145012
Ta       0.00000000       0.00000000       1.88484848       0.00000000       0.00000000      13.44145012
2
Properties=species:S:1:pos:R:3:forces:R:3 energy=-11.363583324122324 pbc="F F F"
Ta       0.00000000       0.00000000       0.00000000       0.00000000       0.00000000      -9.81588745
Ta       0.00000000       0.00000000       1.94363636       0.00000000       0.00000000       9.81588745
2
Properties=species:S:1:pos:R:3:forces:R:3 energy=-11.846358725780243 pbc="F F F"
Ta       0.00000000       0.00000000       0.00000000       0.00000000       0.00000000      -6.70234108
Ta       0.00000000       0.00000000       2.00242424       0.00000000       0.00000000       6.70234108
2
Properties=species:S:1:pos:R:3:forces:R:3 energy=-12.16290724322601 pbc="F F F"
Ta       0.00000000       0.00000000       0.00000000       0.00000000       0.00000000      -4.16078520
Ta       0.00000000       0.00000000       2.06121212       0.00000000       0.00000000       4.16078520
2
Properties=species:S:1:pos:R:3:forces:R:3 energy=-12.345735023925437 pbc="F F F"
Ta       0.00000000       0.00000000       0.00000000       0.00000000       0.00000000      -2.13632178
Ta       0.00000000       0.00000000       2.12000000       0.00000000       0.00000000       2.13632178
2
Properties=species:S:1:pos:R:3:forces:R:3 energy=-12.422007052965519 pbc="F F F"
Ta       0.00000000       0.00000000       0.00000000       0.00000000       0.00000000      -0.51665556
Ta       0.00000000       0.00000000       2.17878788       0.00000000       0.00000000       0.51665556
2
Properties=species:S:1:pos:R:3:forces:R:3 energy=-12.412460091046608 pbc="F F F"
Ta       0.00000000       0.00000000       0.00000000       0.00000000       0.00000000       0.79665899
Ta       0.00000000       0.00000000       2.23757576       0.00000000       0.00000000      -0.79665899
2
Properties=species:S:1:pos:R:3:forces:R:3 energy=-12.333047258834643 pbc="F F F"
Ta       0.00000000       0.00000000       0.00000000       0.00000000       0.00000000       1.86910450
Ta       0.00000000       0.00000000       2.29636364       0.00000000       0.00000000      -1.86910450
2
Properties=species:S:1:pos:R:3:forces:R:3 energy=-12.19651588945382 pbc="F F F"
Ta       0.00000000       0.00000000       0.00000000       0.00000000       0.00000000       2.74634624
Ta       0.00000000       0.00000000       2.35515152       0.00000000       0.00000000      -2.74634624
2
Properties=species:S:1:pos:R:3:forces:R:3 energy=-12.013410524442701 pbc="F F F"
Ta       0.00000000       0.00000000       0.00000000       0.00000000       0.00000000       3.45584297
Ta       0.00000000       0.00000000       2.41393939       0.00000000       0.00000000      -3.45584297
2
Properties=species:S:1:pos:R:3:forces:R:3 energy=-11.793513155049304 pbc="F F F"
Ta       0.00000000       0.00000000       0.00000000       0.00000000       0.00000000       3.99500012
Ta       0.00000000       0.00000000       2.47272727       0.00000000       0.00000000      -3.99500012
2
Properties=species:S:1:pos:R:3:forces:R:3 energy=-11.547495397804136 pbc="F F F"
Ta       0.00000000       0.00000000       0.00000000       0.00000000       0.00000000       4.34075594
Ta       0.00000000       0.00000000       2.53151515       0.00000000       0.00000000      -4.34075594
2
Properties=species:S:1:pos:R:3:forces:R:3 energy=-11.287101615508364 pbc="F F F"
Ta       0.00000000       0.00000000       0.00000000       0.00000000       0.00000000       4.48614597
Ta       0.00000000       0.00000000       2.59030303       0.00000000       0.00000000      -4.48614597
2
Properties=species:S:1:pos:R:3:forces:R:3 energy=-11.023339603338886 pbc="F F F"
Ta       0.00000000       0.00000000       0.00000000       0.00000000       0.00000000       4.46361542
Ta       0.00000000       0.00000000       2.64909091       0.00000000       0.00000000      -4.46361542
2
Properties=species:S:1:pos:R:3:forces:R:3 energy=-10.764492624082 pbc="F F F"
Ta       0.00000000       0.00000000       0.00000000       0.00000000       0.00000000       4.32827663
Ta       0.00000000       0.00000000       2.70787879       0.00000000       0.00000000      -4.32827663
2
Properties=species:S:1:pos:R:3:forces:R:3 energy=-10.515691350277926 pbc="F F F"
Ta       0.00000000       0.00000000       0.00000000       0.00000000       0.00000000       4.12847137
Ta       0.00000000       0.00000000       2.76666667       0.00000000       0.00000000      -4.12847137
2
Properties=species:S:1:pos:R:3:forces:R:3 energy=-10.279679315597061 pbc="F F F"
Ta       0.00000000       0.00000000       0.00000000       0.00000000       0.00000000       3.89809442
Ta       0.00000000       0.00000000       2.82545455       0.00000000       0.00000000      -3.89809442
2
Properties=species:S:1:pos:R:3:forces:R:3 energy=-10.057421549283012 pbc="F F F"
Ta       0.00000000       0.00000000       0.00000000       0.00000000       0.00000000       3.66499805
Ta       0.00000000       0.00000000       2.88424242       0.00000000       0.00000000      -3.66499805
2
Properties=species:S:1:pos:R:3:forces:R:3 energy=-9.848341682483257 pbc="F F F"
Ta       0.00000000       0.00000000       0.00000000       0.00000000       0.00000000       3.45307112
Ta       0.00000000       0.00000000       2.94303030       0.00000000       0.00000000      -3.45307112
2
Properties=species:S:1:pos:R:3:forces:R:3 energy=-9.65076319098762 pbc="F F F"
Ta       0.00000000       0.00000000       0.00000000       0.00000000       0.00000000       3.27423620
Ta       0.00000000       0.00000000       3.00181818       0.00000000       0.00000000      -3.27423620
2
Properties=species:S:1:pos:R:3:forces:R:3 energy=-9.462813593307098 pbc="F F F"
Ta       0.00000000       0.00000000       0.00000000       0.00000000       0.00000000       3.12348318
Ta       0.00000000       0.00000000       3.06060606       0.00000000       0.00000000      -3.12348318
2
Properties=species:S:1:pos:R:3:forces:R:3 energy=-9.28325832663168 pbc="F F F"
Ta       0.00000000       0.00000000       0.00000000       0.00000000       0.00000000       2.98609400
Ta       0.00000000       0.00000000       3.11939394       0.00000000       0.00000000      -2.98609400
2
Properties=species:S:1:pos:R:3:forces:R:3 energy=-9.111706357219342 pbc="F F F"
Ta       0.00000000       0.00000000       0.00000000       0.00000000       0.00000000       2.84965682
Ta       0.00000000       0.00000000       3.17818182       0.00000000       0.00000000      -2.84965682
2
Properties=species:S:1:pos:R:3:forces:R:3 energy=-8.948302047450998 pbc="F F F"
Ta       0.00000000       0.00000000       0.00000000       0.00000000       0.00000000       2.70847726
Ta       0.00000000       0.00000000       3.23696970       0.00000000       0.00000000      -2.70847726
2
Properties=species:S:1:pos:R:3:forces:R:3 energy=-8.793411927095237 pbc="F F F"
Ta       0.00000000       0.00000000       0.00000000       0.00000000       0.00000000       2.55918455
Ta       0.00000000       0.00000000       3.29575758       0.00000000       0.00000000      -2.55918455
2
Properties=species:S:1:pos:R:3:forces:R:3 energy=-8.647687432157863 pbc="F F F"
Ta       0.00000000       0.00000000       0.00000000       0.00000000       0.00000000       2.39538765
Ta       0.00000000       0.00000000       3.35454545       0.00000000       0.00000000      -2.39538765
2
Properties=species:S:1:pos:R:3:forces:R:3 energy=-8.512189423021406 pbc="F F F"
Ta       0.00000000       0.00000000       0.00000000       0.00000000       0.00000000       2.21077347
Ta       0.00000000       0.00000000       3.41333333       0.00000000       0.00000000      -2.21077347
2
Properties=species:S:1:pos:R:3:forces:R:3 energy=-8.388084669228094 pbc="F F F"
Ta       0.00000000       0.00000000       0.00000000       0.00000000       0.00000000       2.00982738
Ta       0.00000000       0.00000000       3.47212121       0.00000000       0.00000000      -2.00982738
2
Properties=species:S:1:pos:R:3:forces:R:3 energy=-8.275821060711017 pbc="F F F"
Ta       0.00000000       0.00000000       0.00000000       0.00000000       0.00000000       1.81222653
Ta       0.00000000       0.00000000       3.53090909       0.00000000       0.00000000      -1.81222653
2
Properties=species:S:1:pos:R:3:forces:R:3 energy=-8.174440334679472 pbc="F F F"
Ta       0.00000000       0.00000000       0.00000000       0.00000000       0.00000000       1.64338076
Ta       0.00000000       0.00000000       3.58969697       0.00000000       0.00000000      -1.64338076
2
Properties=species:S:1:pos:R:3:forces:R:3 energy=-8.081713730962315 pbc="F F F"
Ta       0.00000000       0.00000000       0.00000000       0.00000000       0.00000000       1.51902211
Ta       0.00000000       0.00000000       3.64848485       0.00000000       0.00000000      -1.51902211
2
Properties=species:S:1:pos:R:3:forces:R:3 energy=-7.995013936846616 pbc="F F F"
Ta       0.00000000       0.00000000       0.00000000       0.00000000       0.00000000       1.43629801
Ta       0.00000000       0.00000000       3.70727273       0.00000000       0.00000000      -1.43629801
2
Properties=species:S:1:pos:R:3:forces:R:3 energy=-7.912388828683876 pbc="F F F"
Ta       0.00000000       0.00000000       0.00000000       0.00000000       0.00000000       1.37640846
Ta       0.00000000       0.00000000       3.76606061       0.00000000       0.00000000      -1.37640846
2
Properties=species:S:1:pos:R:3:forces:R:3 energy=-7.833216119967213 pbc="F F F"
Ta       0.00000000       0.00000000       0.00000000       0.00000000       0.00000000       1.31495416
Ta       0.00000000       0.00000000       3.82484848       0.00000000       0.00000000      -1.31495416
2
Properties=species:S:1:pos:R:3:forces:R:3 energy=-7.758196175431939 pbc="F F F"
Ta       0.00000000       0.00000000       0.00000000       0.00000000       0.00000000       1.23275518
Ta       0.00000000       0.00000000       3.88363636       0.00000000       0.00000000      -1.23275518
2
Properties=species:S:1:pos:R:3:forces:R:3 energy=-7.688839035643638 pbc="F F F"
Ta       0.00000000       0.00000000       0.00000000       0.00000000       0.00000000       1.12212086
Ta       0.00000000       0.00000000       3.94242424       0.00000000       0.00000000      -1.12212086
2
Properties=species:S:1:pos:R:3:forces:R:3 energy=-7.626739287064715 pbc="F F F"
Ta       0.00000000       0.00000000       0.00000000       0.00000000       0.00000000       0.98749584
Ta       0.00000000       0.00000000       4.00121212       0.00000000       0.00000000      -0.98749584
2
Properties=species:S:1:pos:R:3:forces:R:3 energy=-7.572950470709767 pbc="F F F"
Ta       0.00000000       0.00000000       0.00000000       0.00000000       0.00000000       0.84194702
Ta       0.00000000       0.00000000       4.06000000       0.00000000       0.00000000      -0.84194702
2
Properties=species:S:1:pos:R:3:forces:R:3 energy=-7.527639387877171 pbc="F F F"
Ta       0.00000000       0.00000000       0.00000000       0.00000000       0.00000000       0.70179361
Ta       0.00000000       0.00000000       4.11878788       0.00000000       0.00000000      -0.70179361
2
Properties=species:S:1:pos:R:3:forces:R:3 energy=-7.490045676696595 pbc="F F F"
Ta       0.00000000       0.00000000       0.00000000       0.00000000       0.00000000       0.58135843
Ta       0.00000000       0.00000000       4.17757576       0.00000000       0.00000000      -0.58135843
2
Properties=species:S:1:pos:R:3:forces:R:3 energy=-7.458721203389346 pbc="F F F"
Ta       0.00000000       0.00000000       0.00000000       0.00000000       0.00000000       0.48946494
Ta       0.00000000       0.00000000       4.23636364       0.00000000       0.00000000      -0.48946494
2
Properties=species:S:1:pos:R:3:forces:R:3 energy=-7.431893361497763 pbc="F F F"
Ta       0.00000000       0.00000000       0.00000000       0.00000000       0.00000000       0.42813355
Ta       0.00000000       0.00000000       4.29515152       0.00000000       0.00000000      -0.42813355
2
Properties=species:S:1:pos:R:3:forces:R:3 energy=-7.407861024124575 pbc="F F F"
Ta       0.00000000       0.00000000       0.00000000       0.00000000       0.00000000       0.39331806
Ta       0.00000000       0.00000000       4.35393939       0.00000000       0.00000000      -0.39331806
2
Properties=species:S:1:pos:R:3:forces:R:3 energy=-7.3852881299025235 pbc="F F F"
Ta       0.00000000       0.00000000       0.00000000       0.00000000       0.00000000       0.37689593
Ta       0.00000000       0.00000000       4.41272727       0.00000000       0.00000000      -0.37689593
2
Properties=species:S:1:pos:R:3:forces:R:3 energy=-7.363376519793194 pbc="F F F"
Ta       0.00000000       0.00000000       0.00000000       0.00000000       0.00000000       0.36917385
Ta       0.00000000       0.00000000       4.47151515       0.00000000       0.00000000      -0.36917385
2
Properties=species:S:1:pos:R:3:forces:R:3 energy=-7.341888177371047 pbc="F F F"
Ta       0.00000000       0.00000000       0.00000000       0.00000000       0.00000000       0.36118174
Ta       0.00000000       0.00000000       4.53030303       0.00000000       0.00000000      -0.36118174
2
Properties=species:S:1:pos:R:3:forces:R:3 energy=-7.321045687066777 pbc="F F F"
Ta       0.00000000       0.00000000       0.00000000       0.00000000       0.00000000       0.34641477
Ta       0.00000000       0.00000000       4.58909091       0.00000000       0.00000000      -0.34641477
2
Properties=species:S:1:pos:R:3:forces:R:3 energy=-7.301353407561696 pbc="F F F"
Ta       0.00000000       0.00000000       0.00000000       0.00000000       0.00000000       0.32184690
Ta       0.00000000       0.00000000       4.64787879       0.00000000       0.00000000      -0.32184690
2
Properties=species:S:1:pos:R:3:forces:R:3 energy=-7.283386179073677 pbc="F F F"
Ta       0.00000000       0.00000000       0.00000000       0.00000000       0.00000000       0.28807703
Ta       0.00000000       0.00000000       4.70666667       0.00000000       0.00000000      -0.28807703
2
Properties=species:S:1:pos:R:3:forces:R:3 energy=-7.267594360315885 pbc="F F F"
Ta       0.00000000       0.00000000       0.00000000       0.00000000       0.00000000       0.24864824
Ta       0.00000000       0.00000000       4.76545455       0.00000000       0.00000000      -0.24864824
2
Properties=species:S:1:pos:R:3:forces:R:3 energy=-7.254162084315733 pbc="F F F"
Ta       0.00000000       0.00000000       0.00000000       0.00000000       0.00000000       0.20863670
Ta       0.00000000       0.00000000       4.82424242       0.00000000       0.00000000      -0.20863670
2
Properties=species:S:1:pos:R:3:forces:R:3 energy=-7.242978698870541 pbc="F F F"
Ta       0.00000000       0.00000000       0.00000000       0.00000000       0.00000000       0.17292693
Ta       0.00000000       0.00000000       4.88303030       0.00000000       0.00000000      -0.17292693
2
Properties=species:S:1:pos:R:3:forces:R:3 energy=-7.233684905710285 pbc="F F F"
Ta       0.00000000       0.00000000       0.00000000       0.00000000       0.00000000       0.14457995
Ta       0.00000000       0.00000000       4.94181818       0.00000000       0.00000000      -0.14457995
2
Properties=species:S:1:pos:R:3:forces:R:3 energy=-7.225824359867864 pbc="F F F"
Ta       0.00000000       0.00000000       0.00000000       0.00000000       0.00000000       0.12403264
Ta       0.00000000       0.00000000       5.00060606       0.00000000       0.00000000      -0.12403264
2
Properties=species:S:1:pos:R:3:forces:R:3 energy=-7.218985277643793 pbc="F F F"
Ta       0.00000000       0.00000000       0.00000000       0.00000000       0.00000000       0.10936803
Ta       0.00000000       0.00000000       5.05939394       0.00000000       0.00000000      -0.10936803
2
Properties=species:S:1:pos:R:3:forces:R:3 energy=-7.212905684569641 pbc="F F F"
Ta       0.00000000       0.00000000       0.00000000       0.00000000       0.00000000       0.09778232
Ta       0.00000000       0.00000000       5.11818182       0.00000000       0.00000000      -0.09778232
2
Properties=species:S:1:pos:R:3:forces:R:3 energy=-7.2074652679946505 pbc="F F F"
Ta       0.00000000       0.00000000       0.00000000       0.00000000       0.00000000       0.08748029
Ta       0.00000000       0.00000000       5.17696970       0.00000000       0.00000000      -0.08748029
2
Properties=species:S:1:pos:R:3:forces:R:3 energy=-7.202589977975877 pbc="F F F"
Ta       0.00000000       0.00000000       0.00000000       0.00000000       0.00000000       0.07877010
Ta       0.00000000       0.00000000       5.23575758       0.00000000       0.00000000      -0.07877010
2
Properties=species:S:1:pos:R:3:forces:R:3 energy=-7.198141271176774 pbc="F F F"
Ta       0.00000000       0.00000000       0.00000000       0.00000000       0.00000000       0.07321911
Ta       0.00000000       0.00000000       5.29454545       0.00000000       0.00000000      -0.07321911
2
Properties=species:S:1:pos:R:3:forces:R:3 energy=-7.193912296169934 pbc="F F F"
Ta       0.00000000       0.00000000       0.00000000       0.00000000       0.00000000       0.07104968
Ta       0.00000000       0.00000000       5.35333333       0.00000000       0.00000000      -0.07104968
2
Properties=species:S:1:pos:R:3:forces:R:3 energy=-7.189786616854322 pbc="F F F"
Ta       0.00000000       0.00000000       0.00000000       0.00000000       0.00000000       0.06889796
Ta       0.00000000       0.00000000       5.41212121       0.00000000       0.00000000      -0.06889796
2
Properties=species:S:1:pos:R:3:forces:R:3 energy=-7.185867311780085 pbc="F F F"
Ta       0.00000000       0.00000000       0.00000000       0.00000000       0.00000000       0.06429258
Ta       0.00000000       0.00000000       5.47090909       0.00000000       0.00000000      -0.06429258
2
Properties=species:S:1:pos:R:3:forces:R:3 energy=-7.182181398466914 pbc="F F F"
Ta       0.00000000       0.00000000       0.00000000       0.00000000       0.00000000       0.06169146
Ta       0.00000000       0.00000000       5.52969697       0.00000000       0.00000000      -0.06169146
2
Properties=species:S:1:pos:R:3:forces:R:3 energy=-7.178591536166391 pbc="F F F"
Ta       0.00000000       0.00000000       0.00000000       0.00000000       0.00000000       0.06016321
Ta       0.00000000       0.00000000       5.58848485       0.00000000       0.00000000      -0.06016321
2
Properties=species:S:1:pos:R:3:forces:R:3 energy=-7.175146943164395 pbc="F F F"
Ta       0.00000000       0.00000000       0.00000000       0.00000000       0.00000000       0.05716409
Ta       0.00000000       0.00000000       5.64727273       0.00000000       0.00000000      -0.05716409
2
Properties=species:S:1:pos:R:3:forces:R:3 energy=-7.17175009077533 pbc="F F F"
Ta       0.00000000       0.00000000       0.00000000       0.00000000       0.00000000       0.06043679
Ta       0.00000000       0.00000000       5.70606061       0.00000000       0.00000000      -0.06043679
2
Properties=species:S:1:pos:R:3:forces:R:3 energy=-7.1677280394081935 pbc="F F F"
Ta       0.00000000       0.00000000       0.00000000       0.00000000       0.00000000       0.07831136
Ta       0.00000000       0.00000000       5.76484848       0.00000000       0.00000000      -0.07831136
2
Properties=species:S:1:pos:R:3:forces:R:3 energy=-7.162603457324904 pbc="F F F"
Ta       0.00000000       0.00000000       0.00000000       0.00000000       0.00000000       0.09216601
Ta       0.00000000       0.00000000       5.82363636       0.00000000       0.00000000      -0.09216601
2
Properties=species:S:1:pos:R:3:forces:R:3 energy=-7.157625736835731 pbc="F F F"
Ta       0.00000000       0.00000000       0.00000000       0.00000000       0.00000000       0.07176301
Ta       0.00000000       0.00000000       5.88242424       0.00000000       0.00000000      -0.07176301
2
Properties=species:S:1:pos:R:3:forces:R:3 energy=-7.154509839211407 pbc="F F F"
Ta       0.00000000       0.00000000       0.00000000       0.00000000       0.00000000       0.03450566
Ta       0.00000000       0.00000000       5.94121212       0.00000000       0.00000000      -0.03450566
2
Properties=species:S:1:pos:R:3:forces:R:3 energy=-7.153148852982247 pbc="F F F"
Ta       0.00000000       0.00000000       0.00000000       0.00000000       0.00000000       0.01725321
Ta       0.00000000       0.00000000       6.00000000       0.00000000       0.00000000      -0.01725321
