2
Properties=species:S:1:pos:R:3:forces:R:3 energy=12399.885675899415 pbc="F F F"
Tb       0.00000000       0.00000000       0.00000000       0.00000000       0.00000000 -214151.20312500
Tb       0.00000000       0.00000000       0.18000000       0.00000000       0.00000000  214151.20312500
2
Properties=species:S:1:pos:R:3:forces:R:3 energy=4877.182550899416 pbc="F F F"
Tb       0.00000000       0.00000000       0.00000000       0.00000000       0.00000000  -71718.91406250
Tb       0.00000000       0.00000000       0.23878788       0.00000000       0.00000000   71718.91406250
2
Properties=species:S:1:pos:R:3:forces:R:3 energy=2161.192316524416 pbc="F F F"
Tb       0.00000000       0.00000000       0.00000000       0.00000000       0.00000000  -28276.62109375
Tb       0.00000000       0.00000000       0.29757576       0.00000000       0.00000000   28276.62109375
2
Properties=species:S:1:pos:R:3:forces:R:3 energy=1039.1558175009784 pbc="F F F"
Tb       0.00000000       0.00000000       0.00000000       0.00000000       0.00000000  -12336.13281250
Tb       0.00000000       0.00000000       0.35636364       0.00000000       0.00000000   12336.13281250
2
Properties=species:S:1:pos:R:3:forces:R:3 energy=533.3190865439473 pbc="F F F"
Tb       0.00000000       0.00000000       0.00000000       0.00000000       0.00000000   -5782.45410156
Tb       0.00000000       0.00000000       0.41515152       0.00000000       0.00000000    5782.45410156
2
Properties=species:S:1:pos:R:3:forces:R:3 energy=289.921320430666 pbc="F F F"
Tb       0.00000000       0.00000000       0.00000000       0.00000000       0.00000000   -2871.51586914
Tb       0.00000000       0.00000000       0.47393939       0.00000000       0.00000000    2871.51586914
2
Properties=species:S:1:pos:R:3:forces:R:3 energy=166.2679085907742 pbc="F F F"
Tb       0.00000000       0.00000000       0.00000000       0.00000000       0.00000000   -1499.37658691
Tb       0.00000000       0.00000000       0.53272727       0.00000000       0.00000000    1499.37658691
2
Properties=species:S:1:pos:R:3:forces:R:3 energy=100.35586790566757 pbc="F F F"
Tb       0.00000000       0.00000000       0.00000000       0.00000000       0.00000000    -819.16113281
Tb       0.00000000       0.00000000       0.59151515       0.00000000       0.00000000     819.16113281
2
Properties=species:S:1:pos:R:3:forces:R:3 energy=63.65378817073221 pbc="F F F"
Tb       0.00000000       0.00000000       0.00000000       0.00000000       0.00000000    -466.54064941
Tb       0.00000000       0.00000000       0.65030303       0.00000000       0.00000000     466.54064941
2
Properties=species:S:1:pos:R:3:forces:R:3 energy=42.3700815563783 pbc="F F F"
Tb       0.00000000       0.00000000       0.00000000       0.00000000       0.00000000    -276.41497803
Tb       0.00000000       0.00000000       0.70909091       0.00000000       0.00000000     276.41497803
2
Properties=species:S:1:pos:R:3:forces:R:3 energy=29.5270278273283 pbc="F F F"
Tb       0.00000000       0.00000000       0.00000000       0.00000000       0.00000000    -170.54721069
Tb       0.00000000       0.00000000       0.76787879       0.00000000       0.00000000     170.54721069
2
Properties=species:S:1:pos:R:3:forces:R:3 energy=21.43494880411482 pbc="F F F"
Tb       0.00000000       0.00000000       0.00000000       0.00000000       0.00000000    -110.32213593
Tb       0.00000000       0.00000000       0.82666667       0.00000000       0.00000000     110.32213593
2
Properties=species:S:1:pos:R:3:forces:R:3 energy=16.05506047230954 pbc="F F F"
Tb       0.00000000       0.00000000       0.00000000       0.00000000       0.00000000     -75.94227600
Tb       0.00000000       0.00000000       0.88545455       0.00000000       0.00000000      75.94227600
2
Properties=species:S:1:pos:R:3:forces:R:3 energy=12.208661431155623 pbc="F F F"
Tb       0.00000000       0.00000000       0.00000000       0.00000000       0.00000000     -56.88370895
Tb       0.00000000       0.00000000       0.94424242       0.00000000       0.00000000      56.88370895
2
Properties=species:S:1:pos:R:3:forces:R:3 energy=9.182634131850921 pbc="F F F"
Tb       0.00000000       0.00000000       0.00000000       0.00000000       0.00000000     -47.30127716
Tb       0.00000000       0.00000000       1.00303030       0.00000000       0.00000000      47.30127716
2
Properties=species:S:1:pos:R:3:forces:R:3 energy=6.532264981866137 pbc="F F F"
Tb       0.00000000       0.00000000       0.00000000       0.00000000       0.00000000     -43.60934830
Tb       0.00000000       0.00000000       1.06181818       0.00000000       0.00000000      43.60934830
2
Properties=species:S:1:pos:R:3:forces:R:3 energy=3.9928026229028313 pbc="F F F"
Tb       0.00000000       0.00000000       0.00000000       0.00000000       0.00000000     -43.11166382
Tb       0.00000000       0.00000000       1.12060606       0.00000000       0.00000000      43.11166382
2
Properties=species:S:1:pos:R:3:forces:R:3 energy=1.4494256209400056 pbc="F F F"
Tb       0.00000000       0.00000000       0.00000000       0.00000000       0.00000000     -43.30099106
Tb       0.00000000       0.00000000       1.17939394       0.00000000       0.00000000      43.30099106
2
Properties=species:S:1:pos:R:3:forces:R:3 energy=-1.0533999293178493 pbc="F F F"
Tb       0.00000000       0.00000000       0.00000000       0.00000000       0.00000000     -41.23413849
Tb       0.00000000       0.00000000       1.23818182       0.00000000       0.00000000      41.23413849
2
Properties=species:S:1:pos:R:3:forces:R:3 energy=-3.322513920117708 pbc="F F F"
Tb       0.00000000       0.00000000       0.00000000       0.00000000       0.00000000     -35.43897247
Tb       0.00000000       0.00000000       1.29696970       0.00000000       0.00000000      35.43897247
2
Properties=species:S:1:pos:R:3:forces:R:3 energy=-5.1903394982471704 pbc="F F F"
Tb       0.00000000       0.00000000       0.00000000       0.00000000       0.00000000     -28.12015724
Tb       0.00000000       0.00000000       1.35575758       0.00000000       0.00000000      28.12015724
2
Properties=species:S:1:pos:R:3:forces:R:3 energy=-6.645041476740616 pbc="F F F"
Tb       0.00000000       0.00000000       0.00000000       0.00000000       0.00000000     -21.50631332
Tb       0.00000000       0.00000000       1.41454545       0.00000000       0.00000000      21.50631332
2
Properties=species:S:1:pos:R:3:forces:R:3 energy=-7.728537567802343 pbc="F F F"
Tb       0.00000000       0.00000000       0.00000000       0.00000000       0.00000000     -15.45815754
Tb       0.00000000       0.00000000       1.47333333       0.00000000       0.00000000      15.45815754
2
Properties=species:S:1:pos:R:3:forces:R:3 energy=-8.4921811119806 pbc="F F F"
Tb       0.00000000       0.00000000       0.00000000       0.00000000       0.00000000     -10.93008232
Tb       0.00000000       0.00000000       1.53212121       0.00000000       0.00000000      10.93008232
2
Properties=species:S:1:pos:R:3:forces:R:3 energy=-9.066783711860545 pbc="F F F"
Tb       0.00000000       0.00000000       0.00000000       0.00000000       0.00000000      -9.00587559
Tb       0.00000000       0.00000000       1.59090909       0.00000000       0.00000000       9.00587559
2
Properties=species:S:1:pos:R:3:forces:R:3 energy=-9.577270790776168 pbc="F F F"
Tb       0.00000000       0.00000000       0.00000000       0.00000000       0.00000000      -8.43128777
Tb       0.00000000       0.00000000       1.64969697       0.00000000       0.00000000       8.43128777
2
Properties=species:S:1:pos:R:3:forces:R:3 energy=-10.061752014043787 pbc="F F F"
Tb       0.00000000       0.00000000       0.00000000       0.00000000       0.00000000      -8.11442089
Tb       0.00000000       0.00000000       1.70848485       0.00000000       0.00000000       8.11442089
2
Properties=species:S:1:pos:R:3:forces:R:3 energy=-10.542586060599634 pbc="F F F"
Tb       0.00000000       0.00000000       0.00000000       0.00000000       0.00000000      -8.32431221
Tb       0.00000000       0.00000000       1.76727273       0.00000000       0.00000000       8.32431221
2
Properties=species:S:1:pos:R:3:forces:R:3 energy=-11.04241204031413 pbc="F F F"
Tb       0.00000000       0.00000000       0.00000000       0.00000000       0.00000000      -8.63027477
Tb       0.00000000       0.00000000       1.82606061       0.00000000       0.00000000       8.63027477
2
Properties=species:S:1:pos:R:3:forces:R:3 energy=-11.546298961992557 pbc="F F F"
Tb       0.00000000       0.00000000       0.00000000       0.00000000       0.00000000      -8.39488506
Tb       0.00000000       0.00000000       1.88484848       0.00000000       0.00000000       8.39488506
2
Properties=species:S:1:pos:R:3:forces:R:3 energy=-12.015973752556992 pbc="F F F"
Tb       0.00000000       0.00000000       0.00000000       0.00000000       0.00000000      -7.48599386
Tb       0.00000000       0.00000000       1.94363636       0.00000000       0.00000000       7.48599386
2
Properties=species:S:1:pos:R:3:forces:R:3 energy=-12.418390339158718 pbc="F F F"
Tb       0.00000000       0.00000000       0.00000000       0.00000000       0.00000000      -6.16680431
Tb       0.00000000       0.00000000       2.00242424       0.00000000       0.00000000       6.16680431
2
Properties=species:S:1:pos:R:3:forces:R:3 energy=-12.739761122751945 pbc="F F F"
Tb       0.00000000       0.00000000       0.00000000       0.00000000       0.00000000      -4.77645159
Tb       0.00000000       0.00000000       2.06121212       0.00000000       0.00000000       4.77645159
2
Properties=species:S:1:pos:R:3:forces:R:3 energy=-12.982528146478774 pbc="F F F"
Tb       0.00000000       0.00000000       0.00000000       0.00000000       0.00000000      -3.51102138
Tb       0.00000000       0.00000000       2.12000000       0.00000000       0.00000000       3.51102138
2
Properties=species:S:1:pos:R:3:forces:R:3 energy=-13.15625061086305 pbc="F F F"
Tb       0.00000000       0.00000000       0.00000000       0.00000000       0.00000000      -2.43244410
Tb       0.00000000       0.00000000       2.17878788       0.00000000       0.00000000       2.43244410
2
Properties=species:S:1:pos:R:3:forces:R:3 energy=-13.27269740516231 pbc="F F F"
Tb       0.00000000       0.00000000       0.00000000       0.00000000       0.00000000      -1.56687176
Tb       0.00000000       0.00000000       2.23757576       0.00000000       0.00000000       1.56687176
2
Properties=species:S:1:pos:R:3:forces:R:3 energy=-13.345085020218658 pbc="F F F"
Tb       0.00000000       0.00000000       0.00000000       0.00000000       0.00000000      -0.93538392
Tb       0.00000000       0.00000000       2.29636364       0.00000000       0.00000000       0.93538392
2
Properties=species:S:1:pos:R:3:forces:R:3 energy=-13.387142019296958 pbc="F F F"
Tb       0.00000000       0.00000000       0.00000000       0.00000000       0.00000000      -0.53060323
Tb       0.00000000       0.00000000       2.35515152       0.00000000       0.00000000       0.53060323
2
Properties=species:S:1:pos:R:3:forces:R:3 energy=-13.411137818615396 pbc="F F F"
Tb       0.00000000       0.00000000       0.00000000       0.00000000       0.00000000      -0.31258354
Tb       0.00000000       0.00000000       2.41393939       0.00000000       0.00000000       0.31258354
2
Properties=species:S:1:pos:R:3:forces:R:3 energy=-13.426535082179953 pbc="F F F"
Tb       0.00000000       0.00000000       0.00000000       0.00000000       0.00000000      -0.22959997
Tb       0.00000000       0.00000000       2.47272727       0.00000000       0.00000000       0.22959997
2
Properties=species:S:1:pos:R:3:forces:R:3 energy=-13.439866735811457 pbc="F F F"
Tb       0.00000000       0.00000000       0.00000000       0.00000000       0.00000000      -0.23535877
Tb       0.00000000       0.00000000       2.53151515       0.00000000       0.00000000       0.23535877
2
Properties=species:S:1:pos:R:3:forces:R:3 energy=-13.45520330557448 pbc="F F F"
Tb       0.00000000       0.00000000       0.00000000       0.00000000       0.00000000      -0.29208088
Tb       0.00000000       0.00000000       2.59030303       0.00000000       0.00000000       0.29208088
2
Properties=species:S:1:pos:R:3:forces:R:3 energy=-13.474579083483905 pbc="F F F"
Tb       0.00000000       0.00000000       0.00000000       0.00000000       0.00000000      -0.36793089
Tb       0.00000000       0.00000000       2.64909091       0.00000000       0.00000000       0.36793089
2
Properties=species:S:1:pos:R:3:forces:R:3 energy=-13.498335589642979 pbc="F F F"
Tb       0.00000000       0.00000000       0.00000000       0.00000000       0.00000000      -0.43760675
Tb       0.00000000       0.00000000       2.70787879       0.00000000       0.00000000       0.43760675
2
Properties=species:S:1:pos:R:3:forces:R:3 energy=-13.525603000375083 pbc="F F F"
Tb       0.00000000       0.00000000       0.00000000       0.00000000       0.00000000      -0.48583803
Tb       0.00000000       0.00000000       2.76666667       0.00000000       0.00000000       0.48583803
2
Properties=species:S:1:pos:R:3:forces:R:3 energy=-13.554958436927812 pbc="F F F"
Tb       0.00000000       0.00000000       0.00000000       0.00000000       0.00000000      -0.50885487
Tb       0.00000000       0.00000000       2.82545455       0.00000000       0.00000000       0.50885487
2
Properties=species:S:1:pos:R:3:forces:R:3 energy=-13.58502266148412 pbc="F F F"
Tb       0.00000000       0.00000000       0.00000000       0.00000000       0.00000000      -0.51104438
Tb       0.00000000       0.00000000       2.88424242       0.00000000       0.00000000       0.51104438
2
Properties=species:S:1:pos:R:3:forces:R:3 energy=-13.6147626326751 pbc="F F F"
Tb       0.00000000       0.00000000       0.00000000       0.00000000       0.00000000      -0.49873596
Tb       0.00000000       0.00000000       2.94303030       0.00000000       0.00000000       0.49873596
2
Properties=species:S:1:pos:R:3:forces:R:3 energy=-13.643445615171217 pbc="F F F"
Tb       0.00000000       0.00000000       0.00000000       0.00000000       0.00000000      -0.47523618
Tb       0.00000000       0.00000000       3.00181818       0.00000000       0.00000000       0.47523618
2
Properties=species:S:1:pos:R:3:forces:R:3 energy=-13.670402655780524 pbc="F F F"
Tb       0.00000000       0.00000000       0.00000000       0.00000000       0.00000000      -0.43960807
Tb       0.00000000       0.00000000       3.06060606       0.00000000       0.00000000       0.43960807
2
Properties=species:S:1:pos:R:3:forces:R:3 energy=-13.694827408853078 pbc="F F F"
Tb       0.00000000       0.00000000       0.00000000       0.00000000       0.00000000      -0.38839835
Tb       0.00000000       0.00000000       3.11939394       0.00000000       0.00000000       0.38839835
2
Properties=species:S:1:pos:R:3:forces:R:3 energy=-13.715688284202217 pbc="F F F"
Tb       0.00000000       0.00000000       0.00000000       0.00000000       0.00000000      -0.31777555
Tb       0.00000000       0.00000000       3.17818182       0.00000000       0.00000000       0.31777555
2
Properties=species:S:1:pos:R:3:forces:R:3 energy=-13.731751538028785 pbc="F F F"
Tb       0.00000000       0.00000000       0.00000000       0.00000000       0.00000000      -0.22482601
Tb       0.00000000       0.00000000       3.23696970       0.00000000       0.00000000       0.22482601
2
Properties=species:S:1:pos:R:3:forces:R:3 energy=-13.741664014503455 pbc="F F F"
Tb       0.00000000       0.00000000       0.00000000       0.00000000       0.00000000      -0.10861964
Tb       0.00000000       0.00000000       3.29575758       0.00000000       0.00000000       0.10861964
2
Properties=species:S:1:pos:R:3:forces:R:3 energy=-13.74411633811643 pbc="F F F"
Tb       0.00000000       0.00000000       0.00000000       0.00000000       0.00000000       0.02814267
Tb       0.00000000       0.00000000       3.35454545       0.00000000       0.00000000      -0.02814267
2
Properties=species:S:1:pos:R:3:forces:R:3 energy=-13.738103266765833 pbc="F F F"
Tb       0.00000000       0.00000000       0.00000000       0.00000000       0.00000000       0.17755370
Tb       0.00000000       0.00000000       3.41333333       0.00000000       0.00000000      -0.17755370
2
Properties=species:S:1:pos:R:3:forces:R:3 energy=-13.723248882028303 pbc="F F F"
Tb       0.00000000       0.00000000       0.00000000       0.00000000       0.00000000       0.32640383
Tb       0.00000000       0.00000000       3.47212121       0.00000000       0.00000000      -0.32640383
2
Properties=species:S:1:pos:R:3:forces:R:3 energy=-13.700057367490349 pbc="F F F"
Tb       0.00000000       0.00000000       0.00000000       0.00000000       0.00000000       0.45843235
Tb       0.00000000       0.00000000       3.53090909       0.00000000       0.00000000      -0.45843235
2
Properties=species:S:1:pos:R:3:forces:R:3 energy=-13.669978977002929 pbc="F F F"
Tb       0.00000000       0.00000000       0.00000000       0.00000000       0.00000000       0.55849677
Tb       0.00000000       0.00000000       3.58969697       0.00000000       0.00000000      -0.55849677
2
Properties=species:S:1:pos:R:3:forces:R:3 energy=-13.63521061537902 pbc="F F F"
Tb       0.00000000       0.00000000       0.00000000       0.00000000       0.00000000       0.61707312
Tb       0.00000000       0.00000000       3.64848485       0.00000000       0.00000000      -0.61707312
2
Properties=species:S:1:pos:R:3:forces:R:3 energy=-13.598266646937361 pbc="F F F"
Tb       0.00000000       0.00000000       0.00000000       0.00000000       0.00000000       0.63302869
Tb       0.00000000       0.00000000       3.70727273       0.00000000       0.00000000      -0.63302869
2
Properties=species:S:1:pos:R:3:forces:R:3 energy=-13.561484077916422 pbc="F F F"
Tb       0.00000000       0.00000000       0.00000000       0.00000000       0.00000000       0.61324006
Tb       0.00000000       0.00000000       3.76606061       0.00000000       0.00000000      -0.61324006
2
Properties=species:S:1:pos:R:3:forces:R:3 energy=-13.526639027343732 pbc="F F F"
Tb       0.00000000       0.00000000       0.00000000       0.00000000       0.00000000       0.56925118
Tb       0.00000000       0.00000000       3.82484848       0.00000000       0.00000000      -0.56925118
2
Properties=species:S:1:pos:R:3:forces:R:3 energy=-13.494795238539407 pbc="F F F"
Tb       0.00000000       0.00000000       0.00000000       0.00000000       0.00000000       0.51282388
Tb       0.00000000       0.00000000       3.88363636       0.00000000       0.00000000      -0.51282388
2
Properties=species:S:1:pos:R:3:forces:R:3 energy=-13.46641368197043 pbc="F F F"
Tb       0.00000000       0.00000000       0.00000000       0.00000000       0.00000000       0.45264238
Tb       0.00000000       0.00000000       3.94242424       0.00000000       0.00000000      -0.45264238
2
Properties=species:S:1:pos:R:3:forces:R:3 energy=-13.441557677592073 pbc="F F F"
Tb       0.00000000       0.00000000       0.00000000       0.00000000       0.00000000       0.39334479
Tb       0.00000000       0.00000000       4.00121212       0.00000000       0.00000000      -0.39334479
2
Properties=species:S:1:pos:R:3:forces:R:3 energy=-13.420117027319169 pbc="F F F"
Tb       0.00000000       0.00000000       0.00000000       0.00000000       0.00000000       0.33652118
Tb       0.00000000       0.00000000       4.06000000       0.00000000       0.00000000      -0.33652118
2
Properties=species:S:1:pos:R:3:forces:R:3 energy=-13.401934822031986 pbc="F F F"
Tb       0.00000000       0.00000000       0.00000000       0.00000000       0.00000000       0.28256357
Tb       0.00000000       0.00000000       4.11878788       0.00000000       0.00000000      -0.28256357
2
Properties=species:S:1:pos:R:3:forces:R:3 energy=-13.386823761745552 pbc="F F F"
Tb       0.00000000       0.00000000       0.00000000       0.00000000       0.00000000       0.23224546
Tb       0.00000000       0.00000000       4.17757576       0.00000000       0.00000000      -0.23224546
2
Properties=species:S:1:pos:R:3:forces:R:3 energy=-13.37451943190379 pbc="F F F"
Tb       0.00000000       0.00000000       0.00000000       0.00000000       0.00000000       0.18753301
Tb       0.00000000       0.00000000       4.23636364       0.00000000       0.00000000      -0.18753301
2
Properties=species:S:1:pos:R:3:forces:R:3 energy=-13.364604022105507 pbc="F F F"
Tb       0.00000000       0.00000000       0.00000000       0.00000000       0.00000000       0.15149966
Tb       0.00000000       0.00000000       4.29515152       0.00000000       0.00000000      -0.15149966
2
Properties=species:S:1:pos:R:3:forces:R:3 energy=-13.356467295149502 pbc="F F F"
Tb       0.00000000       0.00000000       0.00000000       0.00000000       0.00000000       0.12764034
Tb       0.00000000       0.00000000       4.35393939       0.00000000       0.00000000      -0.12764034
2
Properties=species:S:1:pos:R:3:forces:R:3 energy=-13.349299923985635 pbc="F F F"
Tb       0.00000000       0.00000000       0.00000000       0.00000000       0.00000000       0.11889084
Tb       0.00000000       0.00000000       4.41272727       0.00000000       0.00000000      -0.11889084
2
Properties=species:S:1:pos:R:3:forces:R:3 energy=-13.342162225957706 pbc="F F F"
Tb       0.00000000       0.00000000       0.00000000       0.00000000       0.00000000       0.12671672
Tb       0.00000000       0.00000000       4.47151515       0.00000000       0.00000000      -0.12671672
2
Properties=species:S:1:pos:R:3:forces:R:3 energy=-13.334087172300904 pbc="F F F"
Tb       0.00000000       0.00000000       0.00000000       0.00000000       0.00000000       0.15047275
Tb       0.00000000       0.00000000       4.53030303       0.00000000       0.00000000      -0.15047275
2
Properties=species:S:1:pos:R:3:forces:R:3 energy=-13.32421491324123 pbc="F F F"
Tb       0.00000000       0.00000000       0.00000000       0.00000000       0.00000000       0.18721208
Tb       0.00000000       0.00000000       4.58909091       0.00000000       0.00000000      -0.18721208
2
Properties=species:S:1:pos:R:3:forces:R:3 energy=-13.311916800006129 pbc="F F F"
Tb       0.00000000       0.00000000       0.00000000       0.00000000       0.00000000       0.23202297
Tb       0.00000000       0.00000000       4.64787879       0.00000000       0.00000000      -0.23202297
2
Properties=species:S:1:pos:R:3:forces:R:3 energy=-13.296895526963368 pbc="F F F"
Tb       0.00000000       0.00000000       0.00000000       0.00000000       0.00000000       0.27878934
Tb       0.00000000       0.00000000       4.70666667       0.00000000       0.00000000      -0.27878934
2
Properties=species:S:1:pos:R:3:forces:R:3 energy=-13.279224282953153 pbc="F F F"
Tb       0.00000000       0.00000000       0.00000000       0.00000000       0.00000000       0.32123518
Tb       0.00000000       0.00000000       4.76545455       0.00000000       0.00000000      -0.32123518
2
Properties=species:S:1:pos:R:3:forces:R:3 energy=-13.259316297066455 pbc="F F F"
Tb       0.00000000       0.00000000       0.00000000       0.00000000       0.00000000       0.35401577
Tb       0.00000000       0.00000000       4.82424242       0.00000000       0.00000000      -0.35401577
2
Properties=species:S:1:pos:R:3:forces:R:3 energy=-13.237861864461902 pbc="F F F"
Tb       0.00000000       0.00000000       0.00000000       0.00000000       0.00000000       0.37355715
Tb       0.00000000       0.00000000       4.88303030       0.00000000       0.00000000      -0.37355715
2
Properties=species:S:1:pos:R:3:forces:R:3 energy=-13.215682446866653 pbc="F F F"
Tb       0.00000000       0.00000000       0.00000000       0.00000000       0.00000000       0.37856725
Tb       0.00000000       0.00000000       4.94181818       0.00000000       0.00000000      -0.37856725
2
Properties=species:S:1:pos:R:3:forces:R:3 energy=-13.193617178997112 pbc="F F F"
Tb       0.00000000       0.00000000       0.00000000       0.00000000       0.00000000       0.37004584
Tb       0.00000000       0.00000000       5.00060606       0.00000000       0.00000000      -0.37004584
2
Properties=species:S:1:pos:R:3:forces:R:3 energy=-13.172380891463014 pbc="F F F"
Tb       0.00000000       0.00000000       0.00000000       0.00000000       0.00000000       0.35092789
Tb       0.00000000       0.00000000       5.05939394       0.00000000       0.00000000      -0.35092789
2
Properties=species:S:1:pos:R:3:forces:R:3 energy=-13.152480913018712 pbc="F F F"
Tb       0.00000000       0.00000000       0.00000000       0.00000000       0.00000000       0.32544327
Tb       0.00000000       0.00000000       5.11818182       0.00000000       0.00000000      -0.32544327
2
Properties=species:S:1:pos:R:3:forces:R:3 energy=-13.13415424843553 pbc="F F F"
Tb       0.00000000       0.00000000       0.00000000       0.00000000       0.00000000       0.29805601
Tb       0.00000000       0.00000000       5.17696970       0.00000000       0.00000000      -0.29805601
2
Properties=species:S:1:pos:R:3:forces:R:3 energy=-13.117410462167783 pbc="F F F"
Tb       0.00000000       0.00000000       0.00000000       0.00000000       0.00000000       0.27196395
Tb       0.00000000       0.00000000       5.23575758       0.00000000       0.00000000      -0.27196395
2
Properties=species:S:1:pos:R:3:forces:R:3 energy=-13.102131649429245 pbc="F F F"
Tb       0.00000000       0.00000000       0.00000000       0.00000000       0.00000000       0.24827203
Tb       0.00000000       0.00000000       5.29454545       0.00000000       0.00000000      -0.24827203
2
Properties=species:S:1:pos:R:3:forces:R:3 energy=-13.088144991468928 pbc="F F F"
Tb       0.00000000       0.00000000       0.00000000       0.00000000       0.00000000       0.22854716
Tb       0.00000000       0.00000000       5.35333333       0.00000000       0.00000000      -0.22854716
2
Properties=species:S:1:pos:R:3:forces:R:3 energy=-13.07507861770078 pbc="F F F"
Tb       0.00000000       0.00000000       0.00000000       0.00000000       0.00000000       0.21806134
Tb       0.00000000       0.00000000       5.41212121       0.00000000       0.00000000      -0.21806134
2
Properties=species:S:1:pos:R:3:forces:R:3 energy=-13.062256600158562 pbc="F F F"
Tb       0.00000000       0.00000000       0.00000000       0.00000000       0.00000000       0.21980599
Tb       0.00000000       0.00000000       5.47090909       0.00000000       0.00000000      -0.21980599
2
Properties=species:S:1:pos:R:3:forces:R:3 energy=-13.049176756999668 pbc="F F F"
Tb       0.00000000       0.00000000       0.00000000       0.00000000       0.00000000       0.22410546
Tb       0.00000000       0.00000000       5.52969697       0.00000000       0.00000000      -0.22410546
2
Properties=species:S:1:pos:R:3:forces:R:3 energy=-13.03615712331439 pbc="F F F"
Tb       0.00000000       0.00000000       0.00000000       0.00000000       0.00000000       0.21656531
Tb       0.00000000       0.00000000       5.58848485       0.00000000       0.00000000      -0.21656531
2
Properties=species:S:1:pos:R:3:forces:R:3 energy=-13.023828495019298 pbc="F F F"
Tb       0.00000000       0.00000000       0.00000000       0.00000000       0.00000000       0.20425484
Tb       0.00000000       0.00000000       5.64727273       0.00000000       0.00000000      -0.20425484
2
Properties=species:S:1:pos:R:3:forces:R:3 energy=-13.011742942001868 pbc="F F F"
Tb       0.00000000       0.00000000       0.00000000       0.00000000       0.00000000       0.21160339
Tb       0.00000000       0.00000000       5.70606061       0.00000000       0.00000000      -0.21160339
2
Properties=species:S:1:pos:R:3:forces:R:3 energy=-12.998485407022423 pbc="F F F"
Tb       0.00000000       0.00000000       0.00000000       0.00000000       0.00000000       0.23900418
Tb       0.00000000       0.00000000       5.76484848       0.00000000       0.00000000      -0.23900418
2
Properties=species:S:1:pos:R:3:forces:R:3 energy=-12.984279932894133 pbc="F F F"
Tb       0.00000000       0.00000000       0.00000000       0.00000000       0.00000000       0.23369895
Tb       0.00000000       0.00000000       5.82363636       0.00000000       0.00000000      -0.23369895
2
Properties=species:S:1:pos:R:3:forces:R:3 energy=-12.972458263909475 pbc="F F F"
Tb       0.00000000       0.00000000       0.00000000       0.00000000       0.00000000       0.16054288
Tb       0.00000000       0.00000000       5.88242424       0.00000000       0.00000000      -0.16054288
2
Properties=species:S:1:pos:R:3:forces:R:3 energy=-12.96574439089214 pbc="F F F"
Tb       0.00000000       0.00000000       0.00000000       0.00000000       0.00000000       0.07094519
Tb       0.00000000       0.00000000       5.94121212       0.00000000       0.00000000      -0.07094519
2
Properties=species:S:1:pos:R:3:forces:R:3 energy=-12.963051919605384 pbc="F F F"
Tb       0.00000000       0.00000000       0.00000000       0.00000000       0.00000000       0.03298599
Tb       0.00000000       0.00000000       6.00000000       0.00000000       0.00000000      -0.03298599
