2
Properties=species:S:1:pos:R:3:forces:R:3 energy=13468.673287225292 pbc="F F F"
Tm       0.00000000       0.00000000       0.00000000       0.00000000       0.00000000 -234020.39062500
Tm       0.00000000       0.00000000       0.18000000       0.00000000       0.00000000  234020.39062500
2
Properties=species:S:1:pos:R:3:forces:R:3 energy=5269.217720819042 pbc="F F F"
Tm       0.00000000       0.00000000       0.00000000       0.00000000       0.00000000  -77879.42968750
Tm       0.00000000       0.00000000       0.23878788       0.00000000       0.00000000   77879.42968750
2
Properties=species:S:1:pos:R:3:forces:R:3 energy=2328.1239708190424 pbc="F F F"
Tm       0.00000000       0.00000000       0.00000000       0.00000000       0.00000000  -30502.17382812
Tm       0.00000000       0.00000000       0.29757576       0.00000000       0.00000000   30502.17382812
2
Properties=species:S:1:pos:R:3:forces:R:3 energy=1121.2990196471674 pbc="F F F"
Tm       0.00000000       0.00000000       0.00000000       0.00000000       0.00000000  -13217.91503906
Tm       0.00000000       0.00000000       0.35636364       0.00000000       0.00000000   13217.91503906
2
Properties=species:S:1:pos:R:3:forces:R:3 energy=580.8201988590574 pbc="F F F"
Tm       0.00000000       0.00000000       0.00000000       0.00000000       0.00000000   -6156.95263672
Tm       0.00000000       0.00000000       0.41515152       0.00000000       0.00000000    6156.95263672
2
Properties=species:S:1:pos:R:3:forces:R:3 energy=322.31574329265123 pbc="F F F"
Tm       0.00000000       0.00000000       0.00000000       0.00000000       0.00000000   -3040.35229492
Tm       0.00000000       0.00000000       0.47393939       0.00000000       0.00000000    3040.35229492
2
Properties=species:S:1:pos:R:3:forces:R:3 energy=191.6948631783694 pbc="F F F"
Tm       0.00000000       0.00000000       0.00000000       0.00000000       0.00000000   -1579.37402344
Tm       0.00000000       0.00000000       0.53272727       0.00000000       0.00000000    1579.37402344
2
Properties=species:S:1:pos:R:3:forces:R:3 energy=122.4292992515395 pbc="F F F"
Tm       0.00000000       0.00000000       0.00000000       0.00000000       0.00000000    -858.25762939
Tm       0.00000000       0.00000000       0.59151515       0.00000000       0.00000000     858.25762939
2
Properties=species:S:1:pos:R:3:forces:R:3 energy=84.08541196045181 pbc="F F F"
Tm       0.00000000       0.00000000       0.00000000       0.00000000       0.00000000    -485.54983521
Tm       0.00000000       0.00000000       0.65030303       0.00000000       0.00000000     485.54983521
2
Properties=species:S:1:pos:R:3:forces:R:3 energy=62.02337361484868 pbc="F F F"
Tm       0.00000000       0.00000000       0.00000000       0.00000000       0.00000000    -284.97448730
Tm       0.00000000       0.00000000       0.70909091       0.00000000       0.00000000     284.97448730
2
Properties=species:S:1:pos:R:3:forces:R:3 energy=48.85882674966626 pbc="F F F"
Tm       0.00000000       0.00000000       0.00000000       0.00000000       0.00000000    -173.50598145
Tm       0.00000000       0.00000000       0.76787879       0.00000000       0.00000000     173.50598145
2
Properties=species:S:1:pos:R:3:forces:R:3 energy=40.687646176624064 pbc="F F F"
Tm       0.00000000       0.00000000       0.00000000       0.00000000       0.00000000    -110.40593719
Tm       0.00000000       0.00000000       0.82666667       0.00000000       0.00000000     110.40593719
2
Properties=species:S:1:pos:R:3:forces:R:3 energy=35.34340430875999 pbc="F F F"
Tm       0.00000000       0.00000000       0.00000000       0.00000000       0.00000000     -74.88021851
Tm       0.00000000       0.00000000       0.88545455       0.00000000       0.00000000      74.88021851
2
Properties=species:S:1:pos:R:3:forces:R:3 energy=31.563211284013498 pbc="F F F"
Tm       0.00000000       0.00000000       0.00000000       0.00000000       0.00000000     -55.85453415
Tm       0.00000000       0.00000000       0.94424242       0.00000000       0.00000000      55.85453415
2
Properties=species:S:1:pos:R:3:forces:R:3 energy=28.576055800530668 pbc="F F F"
Tm       0.00000000       0.00000000       0.00000000       0.00000000       0.00000000     -47.12517166
Tm       0.00000000       0.00000000       1.00303030       0.00000000       0.00000000      47.12517166
2
Properties=species:S:1:pos:R:3:forces:R:3 energy=25.89357843236014 pbc="F F F"
Tm       0.00000000       0.00000000       0.00000000       0.00000000       0.00000000     -45.01657486
Tm       0.00000000       0.00000000       1.06181818       0.00000000       0.00000000      45.01657486
2
Properties=species:S:1:pos:R:3:forces:R:3 energy=23.198476513658353 pbc="F F F"
Tm       0.00000000       0.00000000       0.00000000       0.00000000       0.00000000     -47.25625610
Tm       0.00000000       0.00000000       1.12060606       0.00000000       0.00000000      47.25625610
2
Properties=species:S:1:pos:R:3:forces:R:3 energy=20.28534962819152 pbc="F F F"
Tm       0.00000000       0.00000000       0.00000000       0.00000000       0.00000000     -52.10588074
Tm       0.00000000       0.00000000       1.17939394       0.00000000       0.00000000      52.10588074
2
Properties=species:S:1:pos:R:3:forces:R:3 energy=17.07562459971608 pbc="F F F"
Tm       0.00000000       0.00000000       0.00000000       0.00000000       0.00000000     -56.73546600
Tm       0.00000000       0.00000000       1.23818182       0.00000000       0.00000000      56.73546600
2
Properties=species:S:1:pos:R:3:forces:R:3 energy=13.691993612414064 pbc="F F F"
Tm       0.00000000       0.00000000       0.00000000       0.00000000       0.00000000     -57.47045517
Tm       0.00000000       0.00000000       1.29696970       0.00000000       0.00000000      57.47045517
2
Properties=species:S:1:pos:R:3:forces:R:3 energy=10.43809518789387 pbc="F F F"
Tm       0.00000000       0.00000000       0.00000000       0.00000000       0.00000000     -52.24281311
Tm       0.00000000       0.00000000       1.35575758       0.00000000       0.00000000      52.24281311
2
Properties=species:S:1:pos:R:3:forces:R:3 energy=7.634135116002365 pbc="F F F"
Tm       0.00000000       0.00000000       0.00000000       0.00000000       0.00000000     -42.80414581
Tm       0.00000000       0.00000000       1.41454545       0.00000000       0.00000000      42.80414581
2
Properties=species:S:1:pos:R:3:forces:R:3 energy=5.407069509475387 pbc="F F F"
Tm       0.00000000       0.00000000       0.00000000       0.00000000       0.00000000     -33.11940765
Tm       0.00000000       0.00000000       1.47333333       0.00000000       0.00000000      33.11940765
2
Properties=species:S:1:pos:R:3:forces:R:3 energy=3.729503195927581 pbc="F F F"
Tm       0.00000000       0.00000000       0.00000000       0.00000000       0.00000000     -23.94445801
Tm       0.00000000       0.00000000       1.53212121       0.00000000       0.00000000      23.94445801
2
Properties=species:S:1:pos:R:3:forces:R:3 energy=2.581989026096831 pbc="F F F"
Tm       0.00000000       0.00000000       0.00000000       0.00000000       0.00000000     -15.41381550
Tm       0.00000000       0.00000000       1.59090909       0.00000000       0.00000000      15.41381550
2
Properties=species:S:1:pos:R:3:forces:R:3 energy=1.8542714338073991 pbc="F F F"
Tm       0.00000000       0.00000000       0.00000000       0.00000000       0.00000000      -9.96176720
Tm       0.00000000       0.00000000       1.64969697       0.00000000       0.00000000       9.96176720
2
Properties=species:S:1:pos:R:3:forces:R:3 energy=1.3460985276642103 pbc="F F F"
Tm       0.00000000       0.00000000       0.00000000       0.00000000       0.00000000      -7.77271652
Tm       0.00000000       0.00000000       1.70848485       0.00000000       0.00000000       7.77271652
2
Properties=species:S:1:pos:R:3:forces:R:3 energy=0.9015142674399129 pbc="F F F"
Tm       0.00000000       0.00000000       0.00000000       0.00000000       0.00000000      -7.56785727
Tm       0.00000000       0.00000000       1.76727273       0.00000000       0.00000000       7.56785727
2
Properties=species:S:1:pos:R:3:forces:R:3 energy=0.443081003562672 pbc="F F F"
Tm       0.00000000       0.00000000       0.00000000       0.00000000       0.00000000      -8.05407333
Tm       0.00000000       0.00000000       1.82606061       0.00000000       0.00000000       8.05407333
2
Properties=species:S:1:pos:R:3:forces:R:3 energy=-0.04201316081678898 pbc="F F F"
Tm       0.00000000       0.00000000       0.00000000       0.00000000       0.00000000      -8.38642693
Tm       0.00000000       0.00000000       1.88484848       0.00000000       0.00000000       8.38642693
2
Properties=species:S:1:pos:R:3:forces:R:3 energy=-0.5346038361993601 pbc="F F F"
Tm       0.00000000       0.00000000       0.00000000       0.00000000       0.00000000      -8.30261803
Tm       0.00000000       0.00000000       1.94363636       0.00000000       0.00000000       8.30261803
2
Properties=species:S:1:pos:R:3:forces:R:3 energy=-1.011050286249434 pbc="F F F"
Tm       0.00000000       0.00000000       0.00000000       0.00000000       0.00000000      -7.85450602
Tm       0.00000000       0.00000000       2.00242424       0.00000000       0.00000000       7.85450602
2
Properties=species:S:1:pos:R:3:forces:R:3 energy=-1.4529450624426825 pbc="F F F"
Tm       0.00000000       0.00000000       0.00000000       0.00000000       0.00000000      -7.14284420
Tm       0.00000000       0.00000000       2.06121212       0.00000000       0.00000000       7.14284420
2
Properties=species:S:1:pos:R:3:forces:R:3 energy=-1.847620818608784 pbc="F F F"
Tm       0.00000000       0.00000000       0.00000000       0.00000000       0.00000000      -6.26611185
Tm       0.00000000       0.00000000       2.12000000       0.00000000       0.00000000       6.26611185
2
Properties=species:S:1:pos:R:3:forces:R:3 energy=-2.1888064515323986 pbc="F F F"
Tm       0.00000000       0.00000000       0.00000000       0.00000000       0.00000000      -5.34466839
Tm       0.00000000       0.00000000       2.17878788       0.00000000       0.00000000       5.34466839
2
Properties=species:S:1:pos:R:3:forces:R:3 energy=-2.4776184580763623 pbc="F F F"
Tm       0.00000000       0.00000000       0.00000000       0.00000000       0.00000000      -4.50314713
Tm       0.00000000       0.00000000       2.23757576       0.00000000       0.00000000       4.50314713
2
Properties=species:S:1:pos:R:3:forces:R:3 energy=-2.721580545313132 pbc="F F F"
Tm       0.00000000       0.00000000       0.00000000       0.00000000       0.00000000      -3.82857656
Tm       0.00000000       0.00000000       2.29636364       0.00000000       0.00000000       3.82857656
2
Properties=species:S:1:pos:R:3:forces:R:3 energy=-2.931635292054326 pbc="F F F"
Tm       0.00000000       0.00000000       0.00000000       0.00000000       0.00000000      -3.34976649
Tm       0.00000000       0.00000000       2.35515152       0.00000000       0.00000000       3.34976649
2
Properties=species:S:1:pos:R:3:forces:R:3 energy=-3.1188728075268735 pbc="F F F"
Tm       0.00000000       0.00000000       0.00000000       0.00000000       0.00000000      -3.04559183
Tm       0.00000000       0.00000000       2.41393939       0.00000000       0.00000000       3.04559183
2
Properties=species:S:1:pos:R:3:forces:R:3 energy=-3.2921526811086093 pbc="F F F"
Tm       0.00000000       0.00000000       0.00000000       0.00000000       0.00000000      -2.86510134
Tm       0.00000000       0.00000000       2.47272727       0.00000000       0.00000000       2.86510134
2
Properties=species:S:1:pos:R:3:forces:R:3 energy=-3.4569728002120375 pbc="F F F"
Tm       0.00000000       0.00000000       0.00000000       0.00000000       0.00000000      -2.74790716
Tm       0.00000000       0.00000000       2.53151515       0.00000000       0.00000000       2.74790716
2
Properties=species:S:1:pos:R:3:forces:R:3 energy=-3.6154468375675863 pbc="F F F"
Tm       0.00000000       0.00000000       0.00000000       0.00000000       0.00000000      -2.64196157
Tm       0.00000000       0.00000000       2.59030303       0.00000000       0.00000000       2.64196157
2
Properties=species:S:1:pos:R:3:forces:R:3 energy=-3.7671754580542203 pbc="F F F"
Tm       0.00000000       0.00000000       0.00000000       0.00000000       0.00000000      -2.51488352
Tm       0.00000000       0.00000000       2.64909091       0.00000000       0.00000000       2.51488352
2
Properties=species:S:1:pos:R:3:forces:R:3 energy=-3.910497564745146 pbc="F F F"
Tm       0.00000000       0.00000000       0.00000000       0.00000000       0.00000000      -2.35567832
Tm       0.00000000       0.00000000       2.70787879       0.00000000       0.00000000       2.35567832
2
Properties=species:S:1:pos:R:3:forces:R:3 energy=-4.043596020921239 pbc="F F F"
Tm       0.00000000       0.00000000       0.00000000       0.00000000       0.00000000      -2.16859770
Tm       0.00000000       0.00000000       2.76666667       0.00000000       0.00000000       2.16859770
2
Properties=species:S:1:pos:R:3:forces:R:3 energy=-4.165136173039745 pbc="F F F"
Tm       0.00000000       0.00000000       0.00000000       0.00000000       0.00000000      -1.96441483
Tm       0.00000000       0.00000000       2.82545455       0.00000000       0.00000000       1.96441483
2
Properties=species:S:1:pos:R:3:forces:R:3 energy=-4.274440096701737 pbc="F F F"
Tm       0.00000000       0.00000000       0.00000000       0.00000000       0.00000000      -1.75385785
Tm       0.00000000       0.00000000       2.88424242       0.00000000       0.00000000       1.75385785
2
Properties=species:S:1:pos:R:3:forces:R:3 energy=-4.371384905960437 pbc="F F F"
Tm       0.00000000       0.00000000       0.00000000       0.00000000       0.00000000      -1.54512930
Tm       0.00000000       0.00000000       2.94303030       0.00000000       0.00000000       1.54512930
2
Properties=species:S:1:pos:R:3:forces:R:3 energy=-4.4562661624820645 pbc="F F F"
Tm       0.00000000       0.00000000       0.00000000       0.00000000       0.00000000      -1.34438717
Tm       0.00000000       0.00000000       3.00181818       0.00000000       0.00000000       1.34438717
2
Properties=species:S:1:pos:R:3:forces:R:3 energy=-4.529711745418238 pbc="F F F"
Tm       0.00000000       0.00000000       0.00000000       0.00000000       0.00000000      -1.15684152
Tm       0.00000000       0.00000000       3.06060606       0.00000000       0.00000000       1.15684152
2
Properties=species:S:1:pos:R:3:forces:R:3 energy=-4.59262601710896 pbc="F F F"
Tm       0.00000000       0.00000000       0.00000000       0.00000000       0.00000000      -0.98672450
Tm       0.00000000       0.00000000       3.11939394       0.00000000       0.00000000       0.98672450
2
Properties=species:S:1:pos:R:3:forces:R:3 energy=-4.646110108913818 pbc="F F F"
Tm       0.00000000       0.00000000       0.00000000       0.00000000       0.00000000      -0.83610058
Tm       0.00000000       0.00000000       3.17818182       0.00000000       0.00000000       0.83610058
2
Properties=species:S:1:pos:R:3:forces:R:3 energy=-4.691292287560908 pbc="F F F"
Tm       0.00000000       0.00000000       0.00000000       0.00000000       0.00000000      -0.70379221
Tm       0.00000000       0.00000000       3.23696970       0.00000000       0.00000000       0.70379221
2
Properties=species:S:1:pos:R:3:forces:R:3 energy=-4.729133711361048 pbc="F F F"
Tm       0.00000000       0.00000000       0.00000000       0.00000000       0.00000000      -0.58541238
Tm       0.00000000       0.00000000       3.29575758       0.00000000       0.00000000       0.58541238
2
Properties=species:S:1:pos:R:3:forces:R:3 energy=-4.760271308364413 pbc="F F F"
Tm       0.00000000       0.00000000       0.00000000       0.00000000       0.00000000      -0.47462398
Tm       0.00000000       0.00000000       3.35454545       0.00000000       0.00000000       0.47462398
2
Properties=species:S:1:pos:R:3:forces:R:3 energy=-4.784960798319863 pbc="F F F"
Tm       0.00000000       0.00000000       0.00000000       0.00000000       0.00000000      -0.36504495
Tm       0.00000000       0.00000000       3.41333333       0.00000000       0.00000000       0.36504495
2
Properties=species:S:1:pos:R:3:forces:R:3 energy=-4.803124585467035 pbc="F F F"
Tm       0.00000000       0.00000000       0.00000000       0.00000000       0.00000000      -0.25212544
Tm       0.00000000       0.00000000       3.47212121       0.00000000       0.00000000       0.25212544
2
Properties=species:S:1:pos:R:3:forces:R:3 energy=-4.814512872475008 pbc="F F F"
Tm       0.00000000       0.00000000       0.00000000       0.00000000       0.00000000      -0.13470037
Tm       0.00000000       0.00000000       3.53090909       0.00000000       0.00000000       0.13470037
2
Properties=species:S:1:pos:R:3:forces:R:3 energy=-4.818932930416383 pbc="F F F"
Tm       0.00000000       0.00000000       0.00000000       0.00000000       0.00000000      -0.01597859
Tm       0.00000000       0.00000000       3.58969697       0.00000000       0.00000000       0.01597859
2
Properties=species:S:1:pos:R:3:forces:R:3 energy=-4.816510633613175 pbc="F F F"
Tm       0.00000000       0.00000000       0.00000000       0.00000000       0.00000000       0.09658246
Tm       0.00000000       0.00000000       3.64848485       0.00000000       0.00000000      -0.09658246
2
Properties=species:S:1:pos:R:3:forces:R:3 energy=-4.807890935647705 pbc="F F F"
Tm       0.00000000       0.00000000       0.00000000       0.00000000       0.00000000       0.19319263
Tm       0.00000000       0.00000000       3.70727273       0.00000000       0.00000000      -0.19319263
2
Properties=species:S:1:pos:R:3:forces:R:3 energy=-4.79428059297368 pbc="F F F"
Tm       0.00000000       0.00000000       0.00000000       0.00000000       0.00000000       0.26522043
Tm       0.00000000       0.00000000       3.76606061       0.00000000       0.00000000      -0.26522043
2
Properties=species:S:1:pos:R:3:forces:R:3 energy=-4.777271526091392 pbc="F F F"
Tm       0.00000000       0.00000000       0.00000000       0.00000000       0.00000000       0.30867586
Tm       0.00000000       0.00000000       3.82484848       0.00000000       0.00000000      -0.30867586
2
Properties=species:S:1:pos:R:3:forces:R:3 energy=-4.758508647782137 pbc="F F F"
Tm       0.00000000       0.00000000       0.00000000       0.00000000       0.00000000       0.32572418
Tm       0.00000000       0.00000000       3.88363636       0.00000000       0.00000000      -0.32572418
2
Properties=species:S:1:pos:R:3:forces:R:3 energy=-4.739353623219595 pbc="F F F"
Tm       0.00000000       0.00000000       0.00000000       0.00000000       0.00000000       0.32347697
Tm       0.00000000       0.00000000       3.94242424       0.00000000       0.00000000      -0.32347697
2
Properties=species:S:1:pos:R:3:forces:R:3 energy=-4.720674190309279 pbc="F F F"
Tm       0.00000000       0.00000000       0.00000000       0.00000000       0.00000000       0.31107762
Tm       0.00000000       0.00000000       4.00121212       0.00000000       0.00000000      -0.31107762
2
Properties=species:S:1:pos:R:3:forces:R:3 energy=-4.70281317794454 pbc="F F F"
Tm       0.00000000       0.00000000       0.00000000       0.00000000       0.00000000       0.29682180
Tm       0.00000000       0.00000000       4.06000000       0.00000000       0.00000000      -0.29682180
2
Properties=species:S:1:pos:R:3:forces:R:3 energy=-4.6856967797197 pbc="F F F"
Tm       0.00000000       0.00000000       0.00000000       0.00000000       0.00000000       0.28645363
Tm       0.00000000       0.00000000       4.11878788       0.00000000       0.00000000      -0.28645363
2
Properties=species:S:1:pos:R:3:forces:R:3 energy=-4.669000537610619 pbc="F F F"
Tm       0.00000000       0.00000000       0.00000000       0.00000000       0.00000000       0.28275874
Tm       0.00000000       0.00000000       4.17757576       0.00000000       0.00000000      -0.28275874
2
Properties=species:S:1:pos:R:3:forces:R:3 energy=-4.652314365645298 pbc="F F F"
Tm       0.00000000       0.00000000       0.00000000       0.00000000       0.00000000       0.28599361
Tm       0.00000000       0.00000000       4.23636364       0.00000000       0.00000000      -0.28599361
2
Properties=species:S:1:pos:R:3:forces:R:3 energy=-4.635268015097283 pbc="F F F"
Tm       0.00000000       0.00000000       0.00000000       0.00000000       0.00000000       0.29463390
Tm       0.00000000       0.00000000       4.29515152       0.00000000       0.00000000      -0.29463390
2
Properties=species:S:1:pos:R:3:forces:R:3 energy=-4.617615989513698 pbc="F F F"
Tm       0.00000000       0.00000000       0.00000000       0.00000000       0.00000000       0.30616903
Tm       0.00000000       0.00000000       4.35393939       0.00000000       0.00000000      -0.30616903
2
Properties=species:S:1:pos:R:3:forces:R:3 energy=-4.59926806229336 pbc="F F F"
Tm       0.00000000       0.00000000       0.00000000       0.00000000       0.00000000       0.31783015
Tm       0.00000000       0.00000000       4.41272727       0.00000000       0.00000000      -0.31783015
2
Properties=species:S:1:pos:R:3:forces:R:3 energy=-4.580291310748304 pbc="F F F"
Tm       0.00000000       0.00000000       0.00000000       0.00000000       0.00000000       0.32722425
Tm       0.00000000       0.00000000       4.47151515       0.00000000       0.00000000      -0.32722425
2
Properties=species:S:1:pos:R:3:forces:R:3 energy=-4.560869546931469 pbc="F F F"
Tm       0.00000000       0.00000000       0.00000000       0.00000000       0.00000000       0.33281565
Tm       0.00000000       0.00000000       4.53030303       0.00000000       0.00000000      -0.33281565
2
Properties=species:S:1:pos:R:3:forces:R:3 energy=-4.541243795355299 pbc="F F F"
Tm       0.00000000       0.00000000       0.00000000       0.00000000       0.00000000       0.33419514
Tm       0.00000000       0.00000000       4.58909091       0.00000000       0.00000000      -0.33419514
2
Properties=species:S:1:pos:R:3:forces:R:3 energy=-4.521645592810389 pbc="F F F"
Tm       0.00000000       0.00000000       0.00000000       0.00000000       0.00000000       0.33207718
Tm       0.00000000       0.00000000       4.64787879       0.00000000       0.00000000      -0.33207718
2
Properties=species:S:1:pos:R:3:forces:R:3 energy=-4.502238299381167 pbc="F F F"
Tm       0.00000000       0.00000000       0.00000000       0.00000000       0.00000000       0.32798925
Tm       0.00000000       0.00000000       4.70666667       0.00000000       0.00000000      -0.32798925
2
Properties=species:S:1:pos:R:3:forces:R:3 energy=-4.483085201041445 pbc="F F F"
Tm       0.00000000       0.00000000       0.00000000       0.00000000       0.00000000       0.32374012
Tm       0.00000000       0.00000000       4.76545455       0.00000000       0.00000000      -0.32374012
2
Properties=species:S:1:pos:R:3:forces:R:3 energy=-4.464148625672188 pbc="F F F"
Tm       0.00000000       0.00000000       0.00000000       0.00000000       0.00000000       0.32072541
Tm       0.00000000       0.00000000       4.82424242       0.00000000       0.00000000      -0.32072541
2
Properties=species:S:1:pos:R:3:forces:R:3 energy=-4.4453451991510695 pbc="F F F"
Tm       0.00000000       0.00000000       0.00000000       0.00000000       0.00000000       0.31924358
Tm       0.00000000       0.00000000       4.88303030       0.00000000       0.00000000      -0.31924358
2
Properties=species:S:1:pos:R:3:forces:R:3 energy=-4.426607802504819 pbc="F F F"
Tm       0.00000000       0.00000000       0.00000000       0.00000000       0.00000000       0.31802112
Tm       0.00000000       0.00000000       4.94181818       0.00000000       0.00000000      -0.31802112
2
Properties=species:S:1:pos:R:3:forces:R:3 energy=-4.40800147501688 pbc="F F F"
Tm       0.00000000       0.00000000       0.00000000       0.00000000       0.00000000       0.31427789
Tm       0.00000000       0.00000000       5.00060606       0.00000000       0.00000000      -0.31427789
2
Properties=species:S:1:pos:R:3:forces:R:3 energy=-4.389771581116038 pbc="F F F"
Tm       0.00000000       0.00000000       0.00000000       0.00000000       0.00000000       0.30464545
Tm       0.00000000       0.00000000       5.05939394       0.00000000       0.00000000      -0.30464545
2
Properties=species:S:1:pos:R:3:forces:R:3 energy=-4.372341757307968 pbc="F F F"
Tm       0.00000000       0.00000000       0.00000000       0.00000000       0.00000000       0.28701001
Tm       0.00000000       0.00000000       5.11818182       0.00000000       0.00000000      -0.28701001
2
Properties=species:S:1:pos:R:3:forces:R:3 energy=-4.356166073649257 pbc="F F F"
Tm       0.00000000       0.00000000       0.00000000       0.00000000       0.00000000       0.26242813
Tm       0.00000000       0.00000000       5.17696970       0.00000000       0.00000000      -0.26242813
2
Properties=species:S:1:pos:R:3:forces:R:3 energy=-4.341535959047845 pbc="F F F"
Tm       0.00000000       0.00000000       0.00000000       0.00000000       0.00000000       0.23534238
Tm       0.00000000       0.00000000       5.23575758       0.00000000       0.00000000      -0.23534238
2
Properties=species:S:1:pos:R:3:forces:R:3 energy=-4.32845883753471 pbc="F F F"
Tm       0.00000000       0.00000000       0.00000000       0.00000000       0.00000000       0.20988546
Tm       0.00000000       0.00000000       5.29454545       0.00000000       0.00000000      -0.20988546
2
Properties=species:S:1:pos:R:3:forces:R:3 energy=-4.316874192517336 pbc="F F F"
Tm       0.00000000       0.00000000       0.00000000       0.00000000       0.00000000       0.18328598
Tm       0.00000000       0.00000000       5.35333333       0.00000000       0.00000000      -0.18328598
2
Properties=species:S:1:pos:R:3:forces:R:3 energy=-4.307126487870337 pbc="F F F"
Tm       0.00000000       0.00000000       0.00000000       0.00000000       0.00000000       0.14609210
Tm       0.00000000       0.00000000       5.41212121       0.00000000       0.00000000      -0.14609210
2
Properties=species:S:1:pos:R:3:forces:R:3 energy=-4.299820998386936 pbc="F F F"
Tm       0.00000000       0.00000000       0.00000000       0.00000000       0.00000000       0.10369928
Tm       0.00000000       0.00000000       5.47090909       0.00000000       0.00000000      -0.10369928
2
Properties=species:S:1:pos:R:3:forces:R:3 energy=-4.294513925434083 pbc="F F F"
Tm       0.00000000       0.00000000       0.00000000       0.00000000       0.00000000       0.08131324
Tm       0.00000000       0.00000000       5.52969697       0.00000000       0.00000000      -0.08131324
2
Properties=species:S:1:pos:R:3:forces:R:3 energy=-4.2898949748989015 pbc="F F F"
Tm       0.00000000       0.00000000       0.00000000       0.00000000       0.00000000       0.07709076
Tm       0.00000000       0.00000000       5.58848485       0.00000000       0.00000000      -0.07709076
2
Properties=species:S:1:pos:R:3:forces:R:3 energy=-4.285429902807581 pbc="F F F"
Tm       0.00000000       0.00000000       0.00000000       0.00000000       0.00000000       0.07489726
Tm       0.00000000       0.00000000       5.64727273       0.00000000       0.00000000      -0.07489726
2
Properties=species:S:1:pos:R:3:forces:R:3 energy=-4.28095230153628 pbc="F F F"
Tm       0.00000000       0.00000000       0.00000000       0.00000000       0.00000000       0.08021998
Tm       0.00000000       0.00000000       5.70606061       0.00000000       0.00000000      -0.08021998
2
Properties=species:S:1:pos:R:3:forces:R:3 energy=-4.275500597150075 pbc="F F F"
Tm       0.00000000       0.00000000       0.00000000       0.00000000       0.00000000       0.10894081
Tm       0.00000000       0.00000000       5.76484848       0.00000000       0.00000000      -0.10894081
2
Properties=species:S:1:pos:R:3:forces:R:3 energy=-4.268154771902736 pbc="F F F"
Tm       0.00000000       0.00000000       0.00000000       0.00000000       0.00000000       0.13544691
Tm       0.00000000       0.00000000       5.82363636       0.00000000       0.00000000      -0.13544691
2
Properties=species:S:1:pos:R:3:forces:R:3 energy=-4.2606985080771 pbc="F F F"
Tm       0.00000000       0.00000000       0.00000000       0.00000000       0.00000000       0.10964987
Tm       0.00000000       0.00000000       5.88242424       0.00000000       0.00000000      -0.10964987
2
Properties=species:S:1:pos:R:3:forces:R:3 energy=-4.255831572996301 pbc="F F F"
Tm       0.00000000       0.00000000       0.00000000       0.00000000       0.00000000       0.05607923
Tm       0.00000000       0.00000000       5.94121212       0.00000000       0.00000000      -0.05607923
2
Properties=species:S:1:pos:R:3:forces:R:3 energy=-4.2535071156021935 pbc="F F F"
Tm       0.00000000       0.00000000       0.00000000       0.00000000       0.00000000       0.03099215
Tm       0.00000000       0.00000000       6.00000000       0.00000000       0.00000000      -0.03099215
