2
Properties=species:S:1:pos:R:3:forces:R:3 energy=6110.156835917948 pbc="F F F"
Y        0.00000000       0.00000000       0.00000000       0.00000000       0.00000000  -98871.36718750
Y        0.00000000       0.00000000       0.18000000       0.00000000       0.00000000   98871.36718750
2
Properties=species:S:1:pos:R:3:forces:R:3 energy=2563.8890136523237 pbc="F F F"
Y        0.00000000       0.00000000       0.00000000       0.00000000       0.00000000  -34810.24609375
Y        0.00000000       0.00000000       0.23878788       0.00000000       0.00000000   34810.24609375
2
Properties=species:S:1:pos:R:3:forces:R:3 energy=1216.982641582011 pbc="F F F"
Y        0.00000000       0.00000000       0.00000000       0.00000000       0.00000000  -14444.06445312
Y        0.00000000       0.00000000       0.29757576       0.00000000       0.00000000   14444.06445312
2
Properties=species:S:1:pos:R:3:forces:R:3 energy=630.5643066337449 pbc="F F F"
Y        0.00000000       0.00000000       0.00000000       0.00000000       0.00000000   -6643.05224609
Y        0.00000000       0.00000000       0.35636364       0.00000000       0.00000000    6643.05224609
2
Properties=species:S:1:pos:R:3:forces:R:3 energy=351.9347900321824 pbc="F F F"
Y        0.00000000       0.00000000       0.00000000       0.00000000       0.00000000   -3275.98730469
Y        0.00000000       0.00000000       0.41515152       0.00000000       0.00000000    3275.98730469
2
Properties=species:S:1:pos:R:3:forces:R:3 energy=211.16846312788547 pbc="F F F"
Y        0.00000000       0.00000000       0.00000000       0.00000000       0.00000000   -1701.94104004
Y        0.00000000       0.00000000       0.47393939       0.00000000       0.00000000    1701.94104004
2
Properties=species:S:1:pos:R:3:forces:R:3 energy=136.59499207755647 pbc="F F F"
Y        0.00000000       0.00000000       0.00000000       0.00000000       0.00000000    -922.34893799
Y        0.00000000       0.00000000       0.53272727       0.00000000       0.00000000     922.34893799
2
Properties=species:S:1:pos:R:3:forces:R:3 energy=95.50250858239124 pbc="F F F"
Y        0.00000000       0.00000000       0.00000000       0.00000000       0.00000000    -518.15850830
Y        0.00000000       0.00000000       0.59151515       0.00000000       0.00000000     518.15850830
2
Properties=species:S:1:pos:R:3:forces:R:3 energy=72.07829903201419 pbc="F F F"
Y        0.00000000       0.00000000       0.00000000       0.00000000       0.00000000    -300.41549683
Y        0.00000000       0.00000000       0.65030303       0.00000000       0.00000000     300.41549683
2
Properties=species:S:1:pos:R:3:forces:R:3 energy=58.31165557120071 pbc="F F F"
Y        0.00000000       0.00000000       0.00000000       0.00000000       0.00000000    -179.47857666
Y        0.00000000       0.00000000       0.70909091       0.00000000       0.00000000     179.47857666
2
Properties=species:S:1:pos:R:3:forces:R:3 energy=49.95662179172365 pbc="F F F"
Y        0.00000000       0.00000000       0.00000000       0.00000000       0.00000000    -111.24341583
Y        0.00000000       0.00000000       0.76787879       0.00000000       0.00000000     111.24341583
2
Properties=species:S:1:pos:R:3:forces:R:3 energy=44.6424434706466 pbc="F F F"
Y        0.00000000       0.00000000       0.00000000       0.00000000       0.00000000     -73.43505859
Y        0.00000000       0.00000000       0.82666667       0.00000000       0.00000000      73.43505859
2
Properties=species:S:1:pos:R:3:forces:R:3 energy=40.957514779344244 pbc="F F F"
Y        0.00000000       0.00000000       0.00000000       0.00000000       0.00000000     -54.40181732
Y        0.00000000       0.00000000       0.88545455       0.00000000       0.00000000      54.40181732
2
Properties=species:S:1:pos:R:3:forces:R:3 energy=38.01116115843037 pbc="F F F"
Y        0.00000000       0.00000000       0.00000000       0.00000000       0.00000000     -47.43373489
Y        0.00000000       0.00000000       0.94424242       0.00000000       0.00000000      47.43373489
2
Properties=species:S:1:pos:R:3:forces:R:3 energy=35.22730230464627 pbc="F F F"
Y        0.00000000       0.00000000       0.00000000       0.00000000       0.00000000     -48.33826828
Y        0.00000000       0.00000000       1.00303030       0.00000000       0.00000000      48.33826828
2
Properties=species:S:1:pos:R:3:forces:R:3 energy=32.22494154556861 pbc="F F F"
Y        0.00000000       0.00000000       0.00000000       0.00000000       0.00000000     -54.49525070
Y        0.00000000       0.00000000       1.06181818       0.00000000       0.00000000      54.49525070
2
Properties=species:S:1:pos:R:3:forces:R:3 energy=28.763482141635382 pbc="F F F"
Y        0.00000000       0.00000000       0.00000000       0.00000000       0.00000000     -63.51269150
Y        0.00000000       0.00000000       1.12060606       0.00000000       0.00000000      63.51269150
2
Properties=species:S:1:pos:R:3:forces:R:3 energy=24.756166477283983 pbc="F F F"
Y        0.00000000       0.00000000       0.00000000       0.00000000       0.00000000     -72.61439514
Y        0.00000000       0.00000000       1.17939394       0.00000000       0.00000000      72.61439514
2
Properties=species:S:1:pos:R:3:forces:R:3 energy=20.274359972316162 pbc="F F F"
Y        0.00000000       0.00000000       0.00000000       0.00000000       0.00000000     -79.20071411
Y        0.00000000       0.00000000       1.23818182       0.00000000       0.00000000      79.20071411
2
Properties=species:S:1:pos:R:3:forces:R:3 energy=15.556340125391106 pbc="F F F"
Y        0.00000000       0.00000000       0.00000000       0.00000000       0.00000000     -80.07121277
Y        0.00000000       0.00000000       1.29696970       0.00000000       0.00000000      80.07121277
2
Properties=species:S:1:pos:R:3:forces:R:3 energy=11.021758025023749 pbc="F F F"
Y        0.00000000       0.00000000       0.00000000       0.00000000       0.00000000     -72.85517883
Y        0.00000000       0.00000000       1.35575758       0.00000000       0.00000000      72.85517883
2
Properties=species:S:1:pos:R:3:forces:R:3 energy=7.110469824983082 pbc="F F F"
Y        0.00000000       0.00000000       0.00000000       0.00000000       0.00000000     -59.65399933
Y        0.00000000       0.00000000       1.41454545       0.00000000       0.00000000      59.65399933
2
Properties=species:S:1:pos:R:3:forces:R:3 energy=4.014682950393907 pbc="F F F"
Y        0.00000000       0.00000000       0.00000000       0.00000000       0.00000000     -45.99922180
Y        0.00000000       0.00000000       1.47333333       0.00000000       0.00000000      45.99922180
2
Properties=species:S:1:pos:R:3:forces:R:3 energy=1.6462713200703798 pbc="F F F"
Y        0.00000000       0.00000000       0.00000000       0.00000000       0.00000000     -35.03620911
Y        0.00000000       0.00000000       1.53212121       0.00000000       0.00000000      35.03620911
2
Properties=species:S:1:pos:R:3:forces:R:3 energy=-0.14352665686396987 pbc="F F F"
Y        0.00000000       0.00000000       0.00000000       0.00000000       0.00000000     -26.07193184
Y        0.00000000       0.00000000       1.59090909       0.00000000       0.00000000      26.07193184
2
Properties=species:S:1:pos:R:3:forces:R:3 energy=-1.445451057553678 pbc="F F F"
Y        0.00000000       0.00000000       0.00000000       0.00000000       0.00000000     -18.52437019
Y        0.00000000       0.00000000       1.64969697       0.00000000       0.00000000      18.52437019
2
Properties=species:S:1:pos:R:3:forces:R:3 energy=-2.367307923021505 pbc="F F F"
Y        0.00000000       0.00000000       0.00000000       0.00000000       0.00000000     -13.25264549
Y        0.00000000       0.00000000       1.70848485       0.00000000       0.00000000      13.25264549
2
Properties=species:S:1:pos:R:3:forces:R:3 energy=-3.04540809208528 pbc="F F F"
Y        0.00000000       0.00000000       0.00000000       0.00000000       0.00000000     -10.08974743
Y        0.00000000       0.00000000       1.76727273       0.00000000       0.00000000      10.08974743
2
Properties=species:S:1:pos:R:3:forces:R:3 energy=-3.576942959536295 pbc="F F F"
Y        0.00000000       0.00000000       0.00000000       0.00000000       0.00000000      -8.13283443
Y        0.00000000       0.00000000       1.82606061       0.00000000       0.00000000       8.13283443
2
Properties=species:S:1:pos:R:3:forces:R:3 energy=-4.013645508328198 pbc="F F F"
Y        0.00000000       0.00000000       0.00000000       0.00000000       0.00000000      -6.79997015
Y        0.00000000       0.00000000       1.88484848       0.00000000       0.00000000       6.79997015
2
Properties=species:S:1:pos:R:3:forces:R:3 energy=-4.3835904838242525 pbc="F F F"
Y        0.00000000       0.00000000       0.00000000       0.00000000       0.00000000      -5.83522034
Y        0.00000000       0.00000000       1.94363636       0.00000000       0.00000000       5.83522034
2
Properties=species:S:1:pos:R:3:forces:R:3 energy=-4.704418868830064 pbc="F F F"
Y        0.00000000       0.00000000       0.00000000       0.00000000       0.00000000      -5.10992193
Y        0.00000000       0.00000000       2.00242424       0.00000000       0.00000000       5.10992193
2
Properties=species:S:1:pos:R:3:forces:R:3 energy=-4.986950290198425 pbc="F F F"
Y        0.00000000       0.00000000       0.00000000       0.00000000       0.00000000      -4.51653814
Y        0.00000000       0.00000000       2.06121212       0.00000000       0.00000000       4.51653814
2
Properties=species:S:1:pos:R:3:forces:R:3 energy=-5.236683692722368 pbc="F F F"
Y        0.00000000       0.00000000       0.00000000       0.00000000       0.00000000      -3.98790836
Y        0.00000000       0.00000000       2.12000000       0.00000000       0.00000000       3.98790836
2
Properties=species:S:1:pos:R:3:forces:R:3 energy=-5.456769317758591 pbc="F F F"
Y        0.00000000       0.00000000       0.00000000       0.00000000       0.00000000      -3.50750518
Y        0.00000000       0.00000000       2.17878788       0.00000000       0.00000000       3.50750518
2
Properties=species:S:1:pos:R:3:forces:R:3 energy=-5.649997820761354 pbc="F F F"
Y        0.00000000       0.00000000       0.00000000       0.00000000       0.00000000      -3.07357430
Y        0.00000000       0.00000000       2.23757576       0.00000000       0.00000000       3.07357430
2
Properties=species:S:1:pos:R:3:forces:R:3 energy=-5.818919092433886 pbc="F F F"
Y        0.00000000       0.00000000       0.00000000       0.00000000       0.00000000      -2.67898393
Y        0.00000000       0.00000000       2.29636364       0.00000000       0.00000000       2.67898393
2
Properties=species:S:1:pos:R:3:forces:R:3 energy=-5.9655825535395675 pbc="F F F"
Y        0.00000000       0.00000000       0.00000000       0.00000000       0.00000000      -2.31517839
Y        0.00000000       0.00000000       2.35515152       0.00000000       0.00000000       2.31517839
2
Properties=species:S:1:pos:R:3:forces:R:3 energy=-6.091626927000555 pbc="F F F"
Y        0.00000000       0.00000000       0.00000000       0.00000000       0.00000000      -1.97698927
Y        0.00000000       0.00000000       2.41393939       0.00000000       0.00000000       1.97698927
2
Properties=species:S:1:pos:R:3:forces:R:3 energy=-6.198501648730296 pbc="F F F"
Y        0.00000000       0.00000000       0.00000000       0.00000000       0.00000000      -1.66308260
Y        0.00000000       0.00000000       2.47272727       0.00000000       0.00000000       1.66308260
2
Properties=species:S:1:pos:R:3:forces:R:3 energy=-6.287670106305038 pbc="F F F"
Y        0.00000000       0.00000000       0.00000000       0.00000000       0.00000000      -1.37498879
Y        0.00000000       0.00000000       2.53151515       0.00000000       0.00000000       1.37498879
2
Properties=species:S:1:pos:R:3:forces:R:3 energy=-6.360724626411046 pbc="F F F"
Y        0.00000000       0.00000000       0.00000000       0.00000000       0.00000000      -1.11528265
Y        0.00000000       0.00000000       2.59030303       0.00000000       0.00000000       1.11528265
2
Properties=species:S:1:pos:R:3:forces:R:3 energy=-6.419390630002821 pbc="F F F"
Y        0.00000000       0.00000000       0.00000000       0.00000000       0.00000000      -0.88557976
Y        0.00000000       0.00000000       2.64909091       0.00000000       0.00000000       0.88557976
2
Properties=species:S:1:pos:R:3:forces:R:3 energy=-6.465415690644323 pbc="F F F"
Y        0.00000000       0.00000000       0.00000000       0.00000000       0.00000000      -0.68475991
Y        0.00000000       0.00000000       2.70787879       0.00000000       0.00000000       0.68475991
2
Properties=species:S:1:pos:R:3:forces:R:3 energy=-6.500361166014446 pbc="F F F"
Y        0.00000000       0.00000000       0.00000000       0.00000000       0.00000000      -0.50720704
Y        0.00000000       0.00000000       2.76666667       0.00000000       0.00000000       0.50720704
2
Properties=species:S:1:pos:R:3:forces:R:3 energy=-6.5253028722286945 pbc="F F F"
Y        0.00000000       0.00000000       0.00000000       0.00000000       0.00000000      -0.34246004
Y        0.00000000       0.00000000       2.82545455       0.00000000       0.00000000       0.34246004
2
Properties=species:S:1:pos:R:3:forces:R:3 energy=-6.540628742845624 pbc="F F F"
Y        0.00000000       0.00000000       0.00000000       0.00000000       0.00000000      -0.17791182
Y        0.00000000       0.00000000       2.88424242       0.00000000       0.00000000       0.17791182
2
Properties=species:S:1:pos:R:3:forces:R:3 energy=-6.546025838238435 pbc="F F F"
Y        0.00000000       0.00000000       0.00000000       0.00000000       0.00000000      -0.00356517
Y        0.00000000       0.00000000       2.94303030       0.00000000       0.00000000       0.00356517
2
Properties=species:S:1:pos:R:3:forces:R:3 energy=-6.540783069866922 pbc="F F F"
Y        0.00000000       0.00000000       0.00000000       0.00000000       0.00000000       0.18399593
Y        0.00000000       0.00000000       3.00181818       0.00000000       0.00000000      -0.18399593
2
Properties=species:S:1:pos:R:3:forces:R:3 energy=-6.524217045234729 pbc="F F F"
Y        0.00000000       0.00000000       0.00000000       0.00000000       0.00000000       0.38028309
Y        0.00000000       0.00000000       3.06060606       0.00000000       0.00000000      -0.38028309
2
Properties=species:S:1:pos:R:3:forces:R:3 energy=-6.4961123030130095 pbc="F F F"
Y        0.00000000       0.00000000       0.00000000       0.00000000       0.00000000       0.57429910
Y        0.00000000       0.00000000       3.11939394       0.00000000       0.00000000      -0.57429910
2
Properties=species:S:1:pos:R:3:forces:R:3 energy=-6.457014318179657 pbc="F F F"
Y        0.00000000       0.00000000       0.00000000       0.00000000       0.00000000       0.75190908
Y        0.00000000       0.00000000       3.17818182       0.00000000       0.00000000      -0.75190908
2
Properties=species:S:1:pos:R:3:forces:R:3 energy=-6.4082857254789 pbc="F F F"
Y        0.00000000       0.00000000       0.00000000       0.00000000       0.00000000       0.90012693
Y        0.00000000       0.00000000       3.23696970       0.00000000       0.00000000      -0.90012693
2
Properties=species:S:1:pos:R:3:forces:R:3 energy=-6.3519183161144745 pbc="F F F"
Y        0.00000000       0.00000000       0.00000000       0.00000000       0.00000000       1.01104796
Y        0.00000000       0.00000000       3.29575758       0.00000000       0.00000000      -1.01104796
2
Properties=species:S:1:pos:R:3:forces:R:3 energy=-6.290158396431151 pbc="F F F"
Y        0.00000000       0.00000000       0.00000000       0.00000000       0.00000000       1.08407342
Y        0.00000000       0.00000000       3.35454545       0.00000000       0.00000000      -1.08407342
2
Properties=species:S:1:pos:R:3:forces:R:3 energy=-6.225071967893131 pbc="F F F"
Y        0.00000000       0.00000000       0.00000000       0.00000000       0.00000000       1.12588692
Y        0.00000000       0.00000000       3.41333333       0.00000000       0.00000000      -1.12588692
2
Properties=species:S:1:pos:R:3:forces:R:3 energy=-6.158169560590876 pbc="F F F"
Y        0.00000000       0.00000000       0.00000000       0.00000000       0.00000000       1.14784205
Y        0.00000000       0.00000000       3.47212121       0.00000000       0.00000000      -1.14784205
2
Properties=species:S:1:pos:R:3:forces:R:3 energy=-6.090304040323052 pbc="F F F"
Y        0.00000000       0.00000000       0.00000000       0.00000000       0.00000000       1.15976059
Y        0.00000000       0.00000000       3.53090909       0.00000000       0.00000000      -1.15976059
2
Properties=species:S:1:pos:R:3:forces:R:3 energy=-6.021979746304605 pbc="F F F"
Y        0.00000000       0.00000000       0.00000000       0.00000000       0.00000000       1.16273534
Y        0.00000000       0.00000000       3.58969697       0.00000000       0.00000000      -1.16273534
2
Properties=species:S:1:pos:R:3:forces:R:3 energy=-5.953893501881544 pbc="F F F"
Y        0.00000000       0.00000000       0.00000000       0.00000000       0.00000000       1.15061152
Y        0.00000000       0.00000000       3.64848485       0.00000000       0.00000000      -1.15061152
2
Properties=species:S:1:pos:R:3:forces:R:3 energy=-5.88704231001319 pbc="F F F"
Y        0.00000000       0.00000000       0.00000000       0.00000000       0.00000000       1.12120700
Y        0.00000000       0.00000000       3.70727273       0.00000000       0.00000000      -1.12120700
2
Properties=species:S:1:pos:R:3:forces:R:3 energy=-5.822258549574784 pbc="F F F"
Y        0.00000000       0.00000000       0.00000000       0.00000000       0.00000000       1.08211064
Y        0.00000000       0.00000000       3.76606061       0.00000000       0.00000000      -1.08211064
2
Properties=species:S:1:pos:R:3:forces:R:3 energy=-5.759777948804364 pbc="F F F"
Y        0.00000000       0.00000000       0.00000000       0.00000000       0.00000000       1.04454637
Y        0.00000000       0.00000000       3.82484848       0.00000000       0.00000000      -1.04454637
2
Properties=species:S:1:pos:R:3:forces:R:3 energy=-5.699287523251829 pbc="F F F"
Y        0.00000000       0.00000000       0.00000000       0.00000000       0.00000000       1.01476336
Y        0.00000000       0.00000000       3.88363636       0.00000000       0.00000000      -1.01476336
2
Properties=species:S:1:pos:R:3:forces:R:3 energy=-5.640340822358408 pbc="F F F"
Y        0.00000000       0.00000000       0.00000000       0.00000000       0.00000000       0.99121881
Y        0.00000000       0.00000000       3.94242424       0.00000000       0.00000000      -0.99121881
2
Properties=species:S:1:pos:R:3:forces:R:3 energy=-5.582744486777903 pbc="F F F"
Y        0.00000000       0.00000000       0.00000000       0.00000000       0.00000000       0.96770185
Y        0.00000000       0.00000000       4.00121212       0.00000000       0.00000000      -0.96770185
2
Properties=species:S:1:pos:R:3:forces:R:3 energy=-5.526679618767343 pbc="F F F"
Y        0.00000000       0.00000000       0.00000000       0.00000000       0.00000000       0.93835831
Y        0.00000000       0.00000000       4.06000000       0.00000000       0.00000000      -0.93835831
2
Properties=species:S:1:pos:R:3:forces:R:3 energy=-5.4725787336929965 pbc="F F F"
Y        0.00000000       0.00000000       0.00000000       0.00000000       0.00000000       0.90088058
Y        0.00000000       0.00000000       4.11878788       0.00000000       0.00000000      -0.90088058
2
Properties=species:S:1:pos:R:3:forces:R:3 energy=-5.420888157150887 pbc="F F F"
Y        0.00000000       0.00000000       0.00000000       0.00000000       0.00000000       0.85681581
Y        0.00000000       0.00000000       4.17757576       0.00000000       0.00000000      -0.85681581
2
Properties=species:S:1:pos:R:3:forces:R:3 energy=-5.371889598531203 pbc="F F F"
Y        0.00000000       0.00000000       0.00000000       0.00000000       0.00000000       0.81006646
Y        0.00000000       0.00000000       4.23636364       0.00000000       0.00000000      -0.81006646
2
Properties=species:S:1:pos:R:3:forces:R:3 energy=-5.325606857006179 pbc="F F F"
Y        0.00000000       0.00000000       0.00000000       0.00000000       0.00000000       0.76513946
Y        0.00000000       0.00000000       4.29515152       0.00000000       0.00000000      -0.76513946
2
Properties=species:S:1:pos:R:3:forces:R:3 energy=-5.281815521336181 pbc="F F F"
Y        0.00000000       0.00000000       0.00000000       0.00000000       0.00000000       0.72594190
Y        0.00000000       0.00000000       4.35393939       0.00000000       0.00000000      -0.72594190
2
Properties=species:S:1:pos:R:3:forces:R:3 energy=-5.24008992165875 pbc="F F F"
Y        0.00000000       0.00000000       0.00000000       0.00000000       0.00000000       0.69513738
Y        0.00000000       0.00000000       4.41272727       0.00000000       0.00000000      -0.69513738
2
Properties=species:S:1:pos:R:3:forces:R:3 energy=-5.199895800624055 pbc="F F F"
Y        0.00000000       0.00000000       0.00000000       0.00000000       0.00000000       0.67388427
Y        0.00000000       0.00000000       4.47151515       0.00000000       0.00000000      -0.67388427
2
Properties=species:S:1:pos:R:3:forces:R:3 energy=-5.1606775745948354 pbc="F F F"
Y        0.00000000       0.00000000       0.00000000       0.00000000       0.00000000       0.66170120
Y        0.00000000       0.00000000       4.53030303       0.00000000       0.00000000      -0.66170120
2
Properties=species:S:1:pos:R:3:forces:R:3 energy=-5.121959473809105 pbc="F F F"
Y        0.00000000       0.00000000       0.00000000       0.00000000       0.00000000       0.65643519
Y        0.00000000       0.00000000       4.58909091       0.00000000       0.00000000      -0.65643519
2
Properties=species:S:1:pos:R:3:forces:R:3 energy=-5.0834329556355575 pbc="F F F"
Y        0.00000000       0.00000000       0.00000000       0.00000000       0.00000000       0.65442759
Y        0.00000000       0.00000000       4.64787879       0.00000000       0.00000000      -0.65442759
2
Properties=species:S:1:pos:R:3:forces:R:3 energy=-5.04504289172196 pbc="F F F"
Y        0.00000000       0.00000000       0.00000000       0.00000000       0.00000000       0.65094489
Y        0.00000000       0.00000000       4.70666667       0.00000000       0.00000000      -0.65094489
2
Properties=species:S:1:pos:R:3:forces:R:3 energy=-5.007024265449409 pbc="F F F"
Y        0.00000000       0.00000000       0.00000000       0.00000000       0.00000000       0.64103997
Y        0.00000000       0.00000000       4.76545455       0.00000000       0.00000000      -0.64103997
2
Properties=species:S:1:pos:R:3:forces:R:3 energy=-4.969875595764348 pbc="F F F"
Y        0.00000000       0.00000000       0.00000000       0.00000000       0.00000000       0.62074029
Y        0.00000000       0.00000000       4.82424242       0.00000000       0.00000000      -0.62074029
2
Properties=species:S:1:pos:R:3:forces:R:3 energy=-4.9342806028360995 pbc="F F F"
Y        0.00000000       0.00000000       0.00000000       0.00000000       0.00000000       0.58836073
Y        0.00000000       0.00000000       4.88303030       0.00000000       0.00000000      -0.58836073
2
Properties=species:S:1:pos:R:3:forces:R:3 energy=-4.90090830558162 pbc="F F F"
Y        0.00000000       0.00000000       0.00000000       0.00000000       0.00000000       0.54546624
Y        0.00000000       0.00000000       4.94181818       0.00000000       0.00000000      -0.54546624
2
Properties=species:S:1:pos:R:3:forces:R:3 energy=-4.870256612741967 pbc="F F F"
Y        0.00000000       0.00000000       0.00000000       0.00000000       0.00000000       0.49694785
Y        0.00000000       0.00000000       5.00060606       0.00000000       0.00000000      -0.49694785
2
Properties=species:S:1:pos:R:3:forces:R:3 energy=-4.842454410119065 pbc="F F F"
Y        0.00000000       0.00000000       0.00000000       0.00000000       0.00000000       0.44962671
Y        0.00000000       0.00000000       5.05939394       0.00000000       0.00000000      -0.44962671
2
Properties=species:S:1:pos:R:3:forces:R:3 energy=-4.817247542228795 pbc="F F F"
Y        0.00000000       0.00000000       0.00000000       0.00000000       0.00000000       0.40949926
Y        0.00000000       0.00000000       5.11818182       0.00000000       0.00000000      -0.40949926
2
Properties=species:S:1:pos:R:3:forces:R:3 energy=-4.794132218999331 pbc="F F F"
Y        0.00000000       0.00000000       0.00000000       0.00000000       0.00000000       0.37812504
Y        0.00000000       0.00000000       5.17696970       0.00000000       0.00000000      -0.37812504
2
Properties=species:S:1:pos:R:3:forces:R:3 energy=-4.772714620680516 pbc="F F F"
Y        0.00000000       0.00000000       0.00000000       0.00000000       0.00000000       0.35046116
Y        0.00000000       0.00000000       5.23575758       0.00000000       0.00000000      -0.35046116
2
Properties=species:S:1:pos:R:3:forces:R:3 energy=-4.753010315229186 pbc="F F F"
Y        0.00000000       0.00000000       0.00000000       0.00000000       0.00000000       0.31898335
Y        0.00000000       0.00000000       5.29454545       0.00000000       0.00000000      -0.31898335
2
Properties=species:S:1:pos:R:3:forces:R:3 energy=-4.735194260925898 pbc="F F F"
Y        0.00000000       0.00000000       0.00000000       0.00000000       0.00000000       0.28927767
Y        0.00000000       0.00000000       5.35333333       0.00000000       0.00000000      -0.28927767
2
Properties=species:S:1:pos:R:3:forces:R:3 energy=-4.718390848757028 pbc="F F F"
Y        0.00000000       0.00000000       0.00000000       0.00000000       0.00000000       0.29006490
Y        0.00000000       0.00000000       5.41212121       0.00000000       0.00000000      -0.29006490
2
Properties=species:S:1:pos:R:3:forces:R:3 energy=-4.7002777474347965 pbc="F F F"
Y        0.00000000       0.00000000       0.00000000       0.00000000       0.00000000       0.32926571
Y        0.00000000       0.00000000       5.47090909       0.00000000       0.00000000      -0.32926571
2
Properties=species:S:1:pos:R:3:forces:R:3 energy=-4.6800152977938 pbc="F F F"
Y        0.00000000       0.00000000       0.00000000       0.00000000       0.00000000       0.35221398
Y        0.00000000       0.00000000       5.52969697       0.00000000       0.00000000      -0.35221398
2
Properties=species:S:1:pos:R:3:forces:R:3 energy=-4.659844292737838 pbc="F F F"
Y        0.00000000       0.00000000       0.00000000       0.00000000       0.00000000       0.32827526
Y        0.00000000       0.00000000       5.58848485       0.00000000       0.00000000      -0.32827526
2
Properties=species:S:1:pos:R:3:forces:R:3 energy=-4.641509044318192 pbc="F F F"
Y        0.00000000       0.00000000       0.00000000       0.00000000       0.00000000       0.30060989
Y        0.00000000       0.00000000       5.64727273       0.00000000       0.00000000      -0.30060989
2
Properties=species:S:1:pos:R:3:forces:R:3 energy=-4.623506026995149 pbc="F F F"
Y        0.00000000       0.00000000       0.00000000       0.00000000       0.00000000       0.32077742
Y        0.00000000       0.00000000       5.70606061       0.00000000       0.00000000      -0.32077742
2
Properties=species:S:1:pos:R:3:forces:R:3 energy=-4.603335556552016 pbc="F F F"
Y        0.00000000       0.00000000       0.00000000       0.00000000       0.00000000       0.35890928
Y        0.00000000       0.00000000       5.76484848       0.00000000       0.00000000      -0.35890928
2
Properties=species:S:1:pos:R:3:forces:R:3 energy=-4.582878482345949 pbc="F F F"
Y        0.00000000       0.00000000       0.00000000       0.00000000       0.00000000       0.31989941
Y        0.00000000       0.00000000       5.82363636       0.00000000       0.00000000      -0.31989941
2
Properties=species:S:1:pos:R:3:forces:R:3 energy=-4.567462978975488 pbc="F F F"
Y        0.00000000       0.00000000       0.00000000       0.00000000       0.00000000       0.19894476
Y        0.00000000       0.00000000       5.88242424       0.00000000       0.00000000      -0.19894476
2
Properties=species:S:1:pos:R:3:forces:R:3 energy=-4.559436447102817 pbc="F F F"
Y        0.00000000       0.00000000       0.00000000       0.00000000       0.00000000       0.08064865
Y        0.00000000       0.00000000       5.94121212       0.00000000       0.00000000      -0.08064865
2
Properties=species:S:1:pos:R:3:forces:R:3 energy=-4.556533662656793 pbc="F F F"
Y        0.00000000       0.00000000       0.00000000       0.00000000       0.00000000       0.03343363
Y        0.00000000       0.00000000       6.00000000       0.00000000       0.00000000      -0.03343363
