2
Properties=species:S:1:pos:R:3:forces:R:3 energy=6352.02071115333 pbc="F F F"
Zr       0.00000000       0.00000000       0.00000000       0.00000000       0.00000000 -102791.14062500
Zr       0.00000000       0.00000000       0.18000000       0.00000000       0.00000000  102791.14062500
2
Properties=species:S:1:pos:R:3:forces:R:3 energy=2668.823689668955 pbc="F F F"
Zr       0.00000000       0.00000000       0.00000000       0.00000000       0.00000000  -36105.39453125
Zr       0.00000000       0.00000000       0.23878788       0.00000000       0.00000000   36105.39453125
2
Properties=species:S:1:pos:R:3:forces:R:3 energy=1273.182576387705 pbc="F F F"
Zr       0.00000000       0.00000000       0.00000000       0.00000000       0.00000000  -14946.44238281
Zr       0.00000000       0.00000000       0.29757576       0.00000000       0.00000000   14946.44238281
2
Properties=species:S:1:pos:R:3:forces:R:3 energy=667.0305378134863 pbc="F F F"
Zr       0.00000000       0.00000000       0.00000000       0.00000000       0.00000000   -6856.56738281
Zr       0.00000000       0.00000000       0.35636364       0.00000000       0.00000000    6856.56738281
2
Properties=species:S:1:pos:R:3:forces:R:3 energy=379.79933664794686 pbc="F F F"
Zr       0.00000000       0.00000000       0.00000000       0.00000000       0.00000000   -3371.61157227
Zr       0.00000000       0.00000000       0.41515152       0.00000000       0.00000000    3371.61157227
2
Properties=species:S:1:pos:R:3:forces:R:3 energy=235.1408893886575 pbc="F F F"
Zr       0.00000000       0.00000000       0.00000000       0.00000000       0.00000000   -1745.39367676
Zr       0.00000000       0.00000000       0.47393939       0.00000000       0.00000000    1745.39367676
2
Properties=species:S:1:pos:R:3:forces:R:3 energy=158.83142590035226 pbc="F F F"
Zr       0.00000000       0.00000000       0.00000000       0.00000000       0.00000000    -940.79565430
Zr       0.00000000       0.00000000       0.53272727       0.00000000       0.00000000     940.79565430
2
Properties=species:S:1:pos:R:3:forces:R:3 energy=117.08154799600733 pbc="F F F"
Zr       0.00000000       0.00000000       0.00000000       0.00000000       0.00000000    -523.34344482
Zr       0.00000000       0.00000000       0.59151515       0.00000000       0.00000000     523.34344482
2
Properties=species:S:1:pos:R:3:forces:R:3 energy=93.59074909016152 pbc="F F F"
Zr       0.00000000       0.00000000       0.00000000       0.00000000       0.00000000    -298.40460205
Zr       0.00000000       0.00000000       0.65030303       0.00000000       0.00000000     298.40460205
2
Properties=species:S:1:pos:R:3:forces:R:3 energy=80.02025354804921 pbc="F F F"
Zr       0.00000000       0.00000000       0.00000000       0.00000000       0.00000000    -175.27990723
Zr       0.00000000       0.00000000       0.70909091       0.00000000       0.00000000     175.27990723
2
Properties=species:S:1:pos:R:3:forces:R:3 energy=71.98955295949013 pbc="F F F"
Zr       0.00000000       0.00000000       0.00000000       0.00000000       0.00000000    -104.10658264
Zr       0.00000000       0.00000000       0.76787879       0.00000000       0.00000000     104.10658264
2
Properties=species:S:1:pos:R:3:forces:R:3 energy=67.18568195676043 pbc="F F F"
Zr       0.00000000       0.00000000       0.00000000       0.00000000       0.00000000     -63.50854492
Zr       0.00000000       0.00000000       0.82666667       0.00000000       0.00000000      63.50854492
2
Properties=species:S:1:pos:R:3:forces:R:3 energy=64.00176034553621 pbc="F F F"
Zr       0.00000000       0.00000000       0.00000000       0.00000000       0.00000000     -50.61492157
Zr       0.00000000       0.00000000       0.88545455       0.00000000       0.00000000      50.61492157
2
Properties=species:S:1:pos:R:3:forces:R:3 energy=60.885782396009056 pbc="F F F"
Zr       0.00000000       0.00000000       0.00000000       0.00000000       0.00000000     -55.37843323
Zr       0.00000000       0.00000000       0.94424242       0.00000000       0.00000000      55.37843323
2
Properties=species:S:1:pos:R:3:forces:R:3 energy=57.26943072019146 pbc="F F F"
Zr       0.00000000       0.00000000       0.00000000       0.00000000       0.00000000     -70.21803284
Zr       0.00000000       0.00000000       1.00303030       0.00000000       0.00000000      70.21803284
2
Properties=species:S:1:pos:R:3:forces:R:3 energy=52.413676406426305 pbc="F F F"
Zr       0.00000000       0.00000000       0.00000000       0.00000000       0.00000000     -95.59839630
Zr       0.00000000       0.00000000       1.06181818       0.00000000       0.00000000      95.59839630
2
Properties=species:S:1:pos:R:3:forces:R:3 energy=46.11917105569171 pbc="F F F"
Zr       0.00000000       0.00000000       0.00000000       0.00000000       0.00000000    -116.97794342
Zr       0.00000000       0.00000000       1.12060606       0.00000000       0.00000000     116.97794342
2
Properties=species:S:1:pos:R:3:forces:R:3 energy=38.82273950458552 pbc="F F F"
Zr       0.00000000       0.00000000       0.00000000       0.00000000       0.00000000    -130.19674683
Zr       0.00000000       0.00000000       1.17939394       0.00000000       0.00000000     130.19674683
2
Properties=species:S:1:pos:R:3:forces:R:3 energy=30.930093931478442 pbc="F F F"
Zr       0.00000000       0.00000000       0.00000000       0.00000000       0.00000000    -137.16160583
Zr       0.00000000       0.00000000       1.23818182       0.00000000       0.00000000     137.16160583
2
Properties=species:S:1:pos:R:3:forces:R:3 energy=22.860622223445375 pbc="F F F"
Zr       0.00000000       0.00000000       0.00000000       0.00000000       0.00000000    -135.69769287
Zr       0.00000000       0.00000000       1.29696970       0.00000000       0.00000000     135.69769287
2
Properties=species:S:1:pos:R:3:forces:R:3 energy=15.205971591975088 pbc="F F F"
Zr       0.00000000       0.00000000       0.00000000       0.00000000       0.00000000    -122.49096680
Zr       0.00000000       0.00000000       1.35575758       0.00000000       0.00000000     122.49096680
2
Properties=species:S:1:pos:R:3:forces:R:3 energy=8.70963426490273 pbc="F F F"
Zr       0.00000000       0.00000000       0.00000000       0.00000000       0.00000000     -96.94364929
Zr       0.00000000       0.00000000       1.41454545       0.00000000       0.00000000      96.94364929
2
Properties=species:S:1:pos:R:3:forces:R:3 energy=3.8661381476997847 pbc="F F F"
Zr       0.00000000       0.00000000       0.00000000       0.00000000       0.00000000     -68.35984802
Zr       0.00000000       0.00000000       1.47333333       0.00000000       0.00000000      68.35984802
2
Properties=species:S:1:pos:R:3:forces:R:3 energy=0.539352544623912 pbc="F F F"
Zr       0.00000000       0.00000000       0.00000000       0.00000000       0.00000000     -46.34747314
Zr       0.00000000       0.00000000       1.53212121       0.00000000       0.00000000      46.34747314
2
Properties=species:S:1:pos:R:3:forces:R:3 energy=-1.774286285861123 pbc="F F F"
Zr       0.00000000       0.00000000       0.00000000       0.00000000       0.00000000     -33.82649994
Zr       0.00000000       0.00000000       1.59090909       0.00000000       0.00000000      33.82649994
2
Properties=species:S:1:pos:R:3:forces:R:3 energy=-3.5616914085642613 pbc="F F F"
Zr       0.00000000       0.00000000       0.00000000       0.00000000       0.00000000     -27.59705544
Zr       0.00000000       0.00000000       1.64969697       0.00000000       0.00000000      27.59705544
2
Properties=species:S:1:pos:R:3:forces:R:3 energy=-5.049386999114806 pbc="F F F"
Zr       0.00000000       0.00000000       0.00000000       0.00000000       0.00000000     -23.02108955
Zr       0.00000000       0.00000000       1.70848485       0.00000000       0.00000000      23.02108955
2
Properties=species:S:1:pos:R:3:forces:R:3 energy=-6.259553431030049 pbc="F F F"
Zr       0.00000000       0.00000000       0.00000000       0.00000000       0.00000000     -18.08538437
Zr       0.00000000       0.00000000       1.76727273       0.00000000       0.00000000      18.08538437
2
Properties=species:S:1:pos:R:3:forces:R:3 energy=-7.177524433765809 pbc="F F F"
Zr       0.00000000       0.00000000       0.00000000       0.00000000       0.00000000     -13.23890305
Zr       0.00000000       0.00000000       1.82606061       0.00000000       0.00000000      13.23890305
2
Properties=species:S:1:pos:R:3:forces:R:3 energy=-7.832744887238648 pbc="F F F"
Zr       0.00000000       0.00000000       0.00000000       0.00000000       0.00000000      -9.21377563
Zr       0.00000000       0.00000000       1.88484848       0.00000000       0.00000000       9.21377563
2
Properties=species:S:1:pos:R:3:forces:R:3 energy=-8.27907714775297 pbc="F F F"
Zr       0.00000000       0.00000000       0.00000000       0.00000000       0.00000000      -6.11160040
Zr       0.00000000       0.00000000       1.94363636       0.00000000       0.00000000       6.11160040
2
Properties=species:S:1:pos:R:3:forces:R:3 energy=-8.565964715332463 pbc="F F F"
Zr       0.00000000       0.00000000       0.00000000       0.00000000       0.00000000      -3.75818563
Zr       0.00000000       0.00000000       2.00242424       0.00000000       0.00000000       3.75818563
2
Properties=species:S:1:pos:R:3:forces:R:3 energy=-8.732379765013611 pbc="F F F"
Zr       0.00000000       0.00000000       0.00000000       0.00000000       0.00000000      -1.98950505
Zr       0.00000000       0.00000000       2.06121212       0.00000000       0.00000000       1.98950505
2
Properties=species:S:1:pos:R:3:forces:R:3 energy=-8.808895010633725 pbc="F F F"
Zr       0.00000000       0.00000000       0.00000000       0.00000000       0.00000000      -0.68159705
Zr       0.00000000       0.00000000       2.12000000       0.00000000       0.00000000       0.68159705
2
Properties=species:S:1:pos:R:3:forces:R:3 energy=-8.819642315794168 pbc="F F F"
Zr       0.00000000       0.00000000       0.00000000       0.00000000       0.00000000       0.26211047
Zr       0.00000000       0.00000000       2.17878788       0.00000000       0.00000000      -0.26211047
2
Properties=species:S:1:pos:R:3:forces:R:3 energy=-8.783739485672365 pbc="F F F"
Zr       0.00000000       0.00000000       0.00000000       0.00000000       0.00000000       0.91615695
Zr       0.00000000       0.00000000       2.23757576       0.00000000       0.00000000      -0.91615695
2
Properties=species:S:1:pos:R:3:forces:R:3 energy=-8.716489213035565 pbc="F F F"
Zr       0.00000000       0.00000000       0.00000000       0.00000000       0.00000000       1.33690977
Zr       0.00000000       0.00000000       2.29636364       0.00000000       0.00000000      -1.33690977
2
Properties=species:S:1:pos:R:3:forces:R:3 energy=-8.630199745004493 pbc="F F F"
Zr       0.00000000       0.00000000       0.00000000       0.00000000       0.00000000       1.57187414
Zr       0.00000000       0.00000000       2.35515152       0.00000000       0.00000000      -1.57187414
2
Properties=species:S:1:pos:R:3:forces:R:3 energy=-8.53426942095069 pbc="F F F"
Zr       0.00000000       0.00000000       0.00000000       0.00000000       0.00000000       1.67488623
Zr       0.00000000       0.00000000       2.41393939       0.00000000       0.00000000      -1.67488623
2
Properties=species:S:1:pos:R:3:forces:R:3 energy=-8.434592378014262 pbc="F F F"
Zr       0.00000000       0.00000000       0.00000000       0.00000000       0.00000000       1.71053755
Zr       0.00000000       0.00000000       2.47272727       0.00000000       0.00000000      -1.71053755
2
Properties=species:S:1:pos:R:3:forces:R:3 energy=-8.33321263643205 pbc="F F F"
Zr       0.00000000       0.00000000       0.00000000       0.00000000       0.00000000       1.74259984
Zr       0.00000000       0.00000000       2.53151515       0.00000000       0.00000000      -1.74259984
2
Properties=species:S:1:pos:R:3:forces:R:3 energy=-8.22877429685172 pbc="F F F"
Zr       0.00000000       0.00000000       0.00000000       0.00000000       0.00000000       1.82148397
Zr       0.00000000       0.00000000       2.59030303       0.00000000       0.00000000      -1.82148397
2
Properties=species:S:1:pos:R:3:forces:R:3 energy=-8.1175354668728 pbc="F F F"
Zr       0.00000000       0.00000000       0.00000000       0.00000000       0.00000000       1.97672033
Zr       0.00000000       0.00000000       2.64909091       0.00000000       0.00000000      -1.97672033
2
Properties=species:S:1:pos:R:3:forces:R:3 energy=-7.994817471565206 pbc="F F F"
Zr       0.00000000       0.00000000       0.00000000       0.00000000       0.00000000       2.20947337
Zr       0.00000000       0.00000000       2.70787879       0.00000000       0.00000000      -2.20947337
2
Properties=species:S:1:pos:R:3:forces:R:3 energy=-7.856826209055393 pbc="F F F"
Zr       0.00000000       0.00000000       0.00000000       0.00000000       0.00000000       2.48879552
Zr       0.00000000       0.00000000       2.76666667       0.00000000       0.00000000      -2.48879552
2
Properties=species:S:1:pos:R:3:forces:R:3 energy=-7.70233254905535 pbc="F F F"
Zr       0.00000000       0.00000000       0.00000000       0.00000000       0.00000000       2.76102304
Zr       0.00000000       0.00000000       2.82545455       0.00000000       0.00000000      -2.76102304
2
Properties=species:S:1:pos:R:3:forces:R:3 energy=-7.533447545098114 pbc="F F F"
Zr       0.00000000       0.00000000       0.00000000       0.00000000       0.00000000       2.96994781
Zr       0.00000000       0.00000000       2.88424242       0.00000000       0.00000000      -2.96994781
2
Properties=species:S:1:pos:R:3:forces:R:3 energy=-7.355172875205569 pbc="F F F"
Zr       0.00000000       0.00000000       0.00000000       0.00000000       0.00000000       3.07602048
Zr       0.00000000       0.00000000       2.94303030       0.00000000       0.00000000      -3.07602048
2
Properties=species:S:1:pos:R:3:forces:R:3 energy=-7.1740663518263075 pbc="F F F"
Zr       0.00000000       0.00000000       0.00000000       0.00000000       0.00000000       3.06650639
Zr       0.00000000       0.00000000       3.00181818       0.00000000       0.00000000      -3.06650639
2
Properties=species:S:1:pos:R:3:forces:R:3 energy=-6.99662761968359 pbc="F F F"
Zr       0.00000000       0.00000000       0.00000000       0.00000000       0.00000000       2.95551157
Zr       0.00000000       0.00000000       3.06060606       0.00000000       0.00000000      -2.95551157
2
Properties=species:S:1:pos:R:3:forces:R:3 energy=-6.827913649259842 pbc="F F F"
Zr       0.00000000       0.00000000       0.00000000       0.00000000       0.00000000       2.77623320
Zr       0.00000000       0.00000000       3.11939394       0.00000000       0.00000000      -2.77623320
2
Properties=species:S:1:pos:R:3:forces:R:3 energy=-6.670737965475278 pbc="F F F"
Zr       0.00000000       0.00000000       0.00000000       0.00000000       0.00000000       2.56991291
Zr       0.00000000       0.00000000       3.17818182       0.00000000       0.00000000      -2.56991291
2
Properties=species:S:1:pos:R:3:forces:R:3 energy=-6.525495799577611 pbc="F F F"
Zr       0.00000000       0.00000000       0.00000000       0.00000000       0.00000000       2.37643647
Zr       0.00000000       0.00000000       3.23696970       0.00000000       0.00000000      -2.37643647
2
Properties=species:S:1:pos:R:3:forces:R:3 energy=-6.390452808205168 pbc="F F F"
Zr       0.00000000       0.00000000       0.00000000       0.00000000       0.00000000       2.22693396
Zr       0.00000000       0.00000000       3.29575758       0.00000000       0.00000000      -2.22693396
2
Properties=species:S:1:pos:R:3:forces:R:3 energy=-6.262543396890717 pbc="F F F"
Zr       0.00000000       0.00000000       0.00000000       0.00000000       0.00000000       2.13357139
Zr       0.00000000       0.00000000       3.35454545       0.00000000       0.00000000      -2.13357139
2
Properties=species:S:1:pos:R:3:forces:R:3 energy=-6.138778357778428 pbc="F F F"
Zr       0.00000000       0.00000000       0.00000000       0.00000000       0.00000000       2.08133268
Zr       0.00000000       0.00000000       3.41333333       0.00000000       0.00000000      -2.08133268
2
Properties=species:S:1:pos:R:3:forces:R:3 energy=-6.017657732676835 pbc="F F F"
Zr       0.00000000       0.00000000       0.00000000       0.00000000       0.00000000       2.03800297
Zr       0.00000000       0.00000000       3.47212121       0.00000000       0.00000000      -2.03800297
2
Properties=species:S:1:pos:R:3:forces:R:3 energy=-5.899540989542587 pbc="F F F"
Zr       0.00000000       0.00000000       0.00000000       0.00000000       0.00000000       1.97571647
Zr       0.00000000       0.00000000       3.53090909       0.00000000       0.00000000      -1.97571647
2
Properties=species:S:1:pos:R:3:forces:R:3 energy=-5.786009037761668 pbc="F F F"
Zr       0.00000000       0.00000000       0.00000000       0.00000000       0.00000000       1.88081264
Zr       0.00000000       0.00000000       3.58969697       0.00000000       0.00000000      -1.88081264
2
Properties=species:S:1:pos:R:3:forces:R:3 energy=-5.6790798900892865 pbc="F F F"
Zr       0.00000000       0.00000000       0.00000000       0.00000000       0.00000000       1.75160575
Zr       0.00000000       0.00000000       3.64848485       0.00000000       0.00000000      -1.75160575
2
Properties=species:S:1:pos:R:3:forces:R:3 energy=-5.580616596062544 pbc="F F F"
Zr       0.00000000       0.00000000       0.00000000       0.00000000       0.00000000       1.59434664
Zr       0.00000000       0.00000000       3.70727273       0.00000000       0.00000000      -1.59434664
2
Properties=species:S:1:pos:R:3:forces:R:3 energy=-5.491957813209009 pbc="F F F"
Zr       0.00000000       0.00000000       0.00000000       0.00000000       0.00000000       1.42004395
Zr       0.00000000       0.00000000       3.76606061       0.00000000       0.00000000      -1.42004395
2
Properties=species:S:1:pos:R:3:forces:R:3 energy=-5.413735773914316 pbc="F F F"
Zr       0.00000000       0.00000000       0.00000000       0.00000000       0.00000000       1.24150825
Zr       0.00000000       0.00000000       3.82484848       0.00000000       0.00000000      -1.24150825
2
Properties=species:S:1:pos:R:3:forces:R:3 energy=-5.34583427473792 pbc="F F F"
Zr       0.00000000       0.00000000       0.00000000       0.00000000       0.00000000       1.07063627
Zr       0.00000000       0.00000000       3.88363636       0.00000000       0.00000000      -1.07063627
2
Properties=species:S:1:pos:R:3:forces:R:3 energy=-5.287528020380221 pbc="F F F"
Zr       0.00000000       0.00000000       0.00000000       0.00000000       0.00000000       0.91627026
Zr       0.00000000       0.00000000       3.94242424       0.00000000       0.00000000      -0.91627026
2
Properties=species:S:1:pos:R:3:forces:R:3 energy=-5.237689392332374 pbc="F F F"
Zr       0.00000000       0.00000000       0.00000000       0.00000000       0.00000000       0.78294605
Zr       0.00000000       0.00000000       4.00121212       0.00000000       0.00000000      -0.78294605
2
Properties=species:S:1:pos:R:3:forces:R:3 energy=-5.19504823278113 pbc="F F F"
Zr       0.00000000       0.00000000       0.00000000       0.00000000       0.00000000       0.67121202
Zr       0.00000000       0.00000000       4.06000000       0.00000000       0.00000000      -0.67121202
2
Properties=species:S:1:pos:R:3:forces:R:3 energy=-5.1583815147641685 pbc="F F F"
Zr       0.00000000       0.00000000       0.00000000       0.00000000       0.00000000       0.57933724
Zr       0.00000000       0.00000000       4.11878788       0.00000000       0.00000000      -0.57933724
2
Properties=species:S:1:pos:R:3:forces:R:3 energy=-5.126582437544691 pbc="F F F"
Zr       0.00000000       0.00000000       0.00000000       0.00000000       0.00000000       0.50533515
Zr       0.00000000       0.00000000       4.17757576       0.00000000       0.00000000      -0.50533515
2
Properties=species:S:1:pos:R:3:forces:R:3 energy=-5.09863545835297 pbc="F F F"
Zr       0.00000000       0.00000000       0.00000000       0.00000000       0.00000000       0.44824797
Zr       0.00000000       0.00000000       4.23636364       0.00000000       0.00000000      -0.44824797
2
Properties=species:S:1:pos:R:3:forces:R:3 energy=-5.073544156926917 pbc="F F F"
Zr       0.00000000       0.00000000       0.00000000       0.00000000       0.00000000       0.40825075
Zr       0.00000000       0.00000000       4.29515152       0.00000000       0.00000000      -0.40825075
2
Properties=species:S:1:pos:R:3:forces:R:3 energy=-5.0502885799292745 pbc="F F F"
Zr       0.00000000       0.00000000       0.00000000       0.00000000       0.00000000       0.38592324
Zr       0.00000000       0.00000000       4.35393939       0.00000000       0.00000000      -0.38592324
2
Properties=species:S:1:pos:R:3:forces:R:3 energy=-5.027823785093554 pbc="F F F"
Zr       0.00000000       0.00000000       0.00000000       0.00000000       0.00000000       0.38119483
Zr       0.00000000       0.00000000       4.41272727       0.00000000       0.00000000      -0.38119483
2
Properties=species:S:1:pos:R:3:forces:R:3 energy=-5.005153719305341 pbc="F F F"
Zr       0.00000000       0.00000000       0.00000000       0.00000000       0.00000000       0.39248908
Zr       0.00000000       0.00000000       4.47151515       0.00000000       0.00000000      -0.39248908
2
Properties=species:S:1:pos:R:3:forces:R:3 energy=-4.981428626431096 pbc="F F F"
Zr       0.00000000       0.00000000       0.00000000       0.00000000       0.00000000       0.41635057
Zr       0.00000000       0.00000000       4.53030303       0.00000000       0.00000000      -0.41635057
2
Properties=species:S:1:pos:R:3:forces:R:3 energy=-4.9560541163144975 pbc="F F F"
Zr       0.00000000       0.00000000       0.00000000       0.00000000       0.00000000       0.44767934
Zr       0.00000000       0.00000000       4.58909091       0.00000000       0.00000000      -0.44767934
2
Properties=species:S:1:pos:R:3:forces:R:3 energy=-4.928764222231961 pbc="F F F"
Zr       0.00000000       0.00000000       0.00000000       0.00000000       0.00000000       0.48050421
Zr       0.00000000       0.00000000       4.64787879       0.00000000       0.00000000      -0.48050421
2
Properties=species:S:1:pos:R:3:forces:R:3 energy=-4.899643603162803 pbc="F F F"
Zr       0.00000000       0.00000000       0.00000000       0.00000000       0.00000000       0.50900412
Zr       0.00000000       0.00000000       4.70666667       0.00000000       0.00000000      -0.50900412
2
Properties=species:S:1:pos:R:3:forces:R:3 energy=-4.869094266558483 pbc="F F F"
Zr       0.00000000       0.00000000       0.00000000       0.00000000       0.00000000       0.52853346
Zr       0.00000000       0.00000000       4.76545455       0.00000000       0.00000000      -0.52853346
2
Properties=species:S:1:pos:R:3:forces:R:3 energy=-4.83772951408851 pbc="F F F"
Zr       0.00000000       0.00000000       0.00000000       0.00000000       0.00000000       0.53640342
Zr       0.00000000       0.00000000       4.82424242       0.00000000       0.00000000      -0.53640342
2
Properties=species:S:1:pos:R:3:forces:R:3 energy=-4.80626664060855 pbc="F F F"
Zr       0.00000000       0.00000000       0.00000000       0.00000000       0.00000000       0.53215301
Zr       0.00000000       0.00000000       4.88303030       0.00000000       0.00000000      -0.53215301
2
Properties=species:S:1:pos:R:3:forces:R:3 energy=-4.775370805669086 pbc="F F F"
Zr       0.00000000       0.00000000       0.00000000       0.00000000       0.00000000       0.51731706
Zr       0.00000000       0.00000000       4.94181818       0.00000000       0.00000000      -0.51731706
2
Properties=species:S:1:pos:R:3:forces:R:3 energy=-4.7455963128528635 pbc="F F F"
Zr       0.00000000       0.00000000       0.00000000       0.00000000       0.00000000       0.49457794
Zr       0.00000000       0.00000000       5.00060606       0.00000000       0.00000000      -0.49457794
2
Properties=species:S:1:pos:R:3:forces:R:3 energy=-4.7173179008746065 pbc="F F F"
Zr       0.00000000       0.00000000       0.00000000       0.00000000       0.00000000       0.46676722
Zr       0.00000000       0.00000000       5.05939394       0.00000000       0.00000000      -0.46676722
2
Properties=species:S:1:pos:R:3:forces:R:3 energy=-4.690772877977166 pbc="F F F"
Zr       0.00000000       0.00000000       0.00000000       0.00000000       0.00000000       0.43600649
Zr       0.00000000       0.00000000       5.11818182       0.00000000       0.00000000      -0.43600649
2
Properties=species:S:1:pos:R:3:forces:R:3 energy=-4.666090673164041 pbc="F F F"
Zr       0.00000000       0.00000000       0.00000000       0.00000000       0.00000000       0.40344188
Zr       0.00000000       0.00000000       5.17696970       0.00000000       0.00000000      -0.40344188
2
Properties=species:S:1:pos:R:3:forces:R:3 energy=-4.643360960556559 pbc="F F F"
Zr       0.00000000       0.00000000       0.00000000       0.00000000       0.00000000       0.36974663
Zr       0.00000000       0.00000000       5.23575758       0.00000000       0.00000000      -0.36974663
2
Properties=species:S:1:pos:R:3:forces:R:3 energy=-4.622614319810492 pbc="F F F"
Zr       0.00000000       0.00000000       0.00000000       0.00000000       0.00000000       0.33632332
Zr       0.00000000       0.00000000       5.29454545       0.00000000       0.00000000      -0.33632332
2
Properties=species:S:1:pos:R:3:forces:R:3 energy=-4.603754588596026 pbc="F F F"
Zr       0.00000000       0.00000000       0.00000000       0.00000000       0.00000000       0.30596918
Zr       0.00000000       0.00000000       5.35333333       0.00000000       0.00000000      -0.30596918
2
Properties=species:S:1:pos:R:3:forces:R:3 energy=-4.5865987521923035 pbc="F F F"
Zr       0.00000000       0.00000000       0.00000000       0.00000000       0.00000000       0.27729994
Zr       0.00000000       0.00000000       5.41212121       0.00000000       0.00000000      -0.27729994
2
Properties=species:S:1:pos:R:3:forces:R:3 energy=-4.571306497739234 pbc="F F F"
Zr       0.00000000       0.00000000       0.00000000       0.00000000       0.00000000       0.24125600
Zr       0.00000000       0.00000000       5.47090909       0.00000000       0.00000000      -0.24125600
2
Properties=species:S:1:pos:R:3:forces:R:3 energy=-4.558338236728457 pbc="F F F"
Zr       0.00000000       0.00000000       0.00000000       0.00000000       0.00000000       0.20003220
Zr       0.00000000       0.00000000       5.52969697       0.00000000       0.00000000      -0.20003220
2
Properties=species:S:1:pos:R:3:forces:R:3 energy=-4.5477041086539325 pbc="F F F"
Zr       0.00000000       0.00000000       0.00000000       0.00000000       0.00000000       0.16266568
Zr       0.00000000       0.00000000       5.58848485       0.00000000       0.00000000      -0.16266568
2
Properties=species:S:1:pos:R:3:forces:R:3 energy=-4.539119322219559 pbc="F F F"
Zr       0.00000000       0.00000000       0.00000000       0.00000000       0.00000000       0.13036188
Zr       0.00000000       0.00000000       5.64727273       0.00000000       0.00000000      -0.13036188
2
Properties=species:S:1:pos:R:3:forces:R:3 energy=-4.532233056182042 pbc="F F F"
Zr       0.00000000       0.00000000       0.00000000       0.00000000       0.00000000       0.10597745
Zr       0.00000000       0.00000000       5.70606061       0.00000000       0.00000000      -0.10597745
2
Properties=species:S:1:pos:R:3:forces:R:3 energy=-4.526239925765983 pbc="F F F"
Zr       0.00000000       0.00000000       0.00000000       0.00000000       0.00000000       0.10179320
Zr       0.00000000       0.00000000       5.76484848       0.00000000       0.00000000      -0.10179320
2
Properties=species:S:1:pos:R:3:forces:R:3 energy=-4.52003443988927 pbc="F F F"
Zr       0.00000000       0.00000000       0.00000000       0.00000000       0.00000000       0.10745582
Zr       0.00000000       0.00000000       5.82363636       0.00000000       0.00000000      -0.10745582
2
Properties=species:S:1:pos:R:3:forces:R:3 energy=-4.514219451944715 pbc="F F F"
Zr       0.00000000       0.00000000       0.00000000       0.00000000       0.00000000       0.08521041
Zr       0.00000000       0.00000000       5.88242424       0.00000000       0.00000000      -0.08521041
2
Properties=species:S:1:pos:R:3:forces:R:3 energy=-4.510359572194486 pbc="F F F"
Zr       0.00000000       0.00000000       0.00000000       0.00000000       0.00000000       0.04638005
Zr       0.00000000       0.00000000       5.94121212       0.00000000       0.00000000      -0.04638005
2
Properties=species:S:1:pos:R:3:forces:R:3 energy=-4.508333215002871 pbc="F F F"
Zr       0.00000000       0.00000000       0.00000000       0.00000000       0.00000000       0.02814879
Zr       0.00000000       0.00000000       6.00000000       0.00000000       0.00000000      -0.02814879
