2
Properties=species:S:1:pos:R:3:forces:R:3 energy=103307.46957178561 pbc="F F F"
Ac       0.00000000       0.00000000       0.00000000       0.00000000       0.00000000 -2660992.75000000
Ac       0.00000000       0.00000000       0.10000000       0.00000000       0.00000000 2660992.75000000
2
Properties=species:S:1:pos:R:3:forces:R:3 energy=27708.141446785605 pbc="F F F"
Ac       0.00000000       0.00000000       0.00000000       0.00000000       0.00000000 -533690.06250000
Ac       0.00000000       0.00000000       0.15959596       0.00000000       0.00000000  533690.06250000
2
Properties=species:S:1:pos:R:3:forces:R:3 energy=9767.415860848105 pbc="F F F"
Ac       0.00000000       0.00000000       0.00000000       0.00000000       0.00000000 -156755.60937500
Ac       0.00000000       0.00000000       0.21919192       0.00000000       0.00000000  156755.60937500
2
Properties=species:S:1:pos:R:3:forces:R:3 energy=3993.8980385824802 pbc="F F F"
Ac       0.00000000       0.00000000       0.00000000       0.00000000       0.00000000  -56250.03515625
Ac       0.00000000       0.00000000       0.27878788       0.00000000       0.00000000   56250.03515625
2
Properties=species:S:1:pos:R:3:forces:R:3 energy=1806.521695809043 pbc="F F F"
Ac       0.00000000       0.00000000       0.00000000       0.00000000       0.00000000  -22733.16210938
Ac       0.00000000       0.00000000       0.33838384       0.00000000       0.00000000   22733.16210938
2
Properties=species:S:1:pos:R:3:forces:R:3 energy=888.6313759848241 pbc="F F F"
Ac       0.00000000       0.00000000       0.00000000       0.00000000       0.00000000   -9985.59082031
Ac       0.00000000       0.00000000       0.39797980       0.00000000       0.00000000    9985.59082031
2
Properties=species:S:1:pos:R:3:forces:R:3 energy=473.14840480608916 pbc="F F F"
Ac       0.00000000       0.00000000       0.00000000       0.00000000       0.00000000   -4689.59082031
Ac       0.00000000       0.00000000       0.45757576       0.00000000       0.00000000    4689.59082031
2
Properties=species:S:1:pos:R:3:forces:R:3 energy=272.92193385882354 pbc="F F F"
Ac       0.00000000       0.00000000       0.00000000       0.00000000       0.00000000   -2331.64501953
Ac       0.00000000       0.00000000       0.51717172       0.00000000       0.00000000    2331.64501953
2
Properties=species:S:1:pos:R:3:forces:R:3 energy=171.14362883045516 pbc="F F F"
Ac       0.00000000       0.00000000       0.00000000       0.00000000       0.00000000   -1216.32641602
Ac       0.00000000       0.00000000       0.57676768       0.00000000       0.00000000    1216.32641602
2
Properties=species:S:1:pos:R:3:forces:R:3 energy=117.10243774205223 pbc="F F F"
Ac       0.00000000       0.00000000       0.00000000       0.00000000       0.00000000    -658.60815430
Ac       0.00000000       0.00000000       0.63636364       0.00000000       0.00000000     658.60815430
2
Properties=species:S:1:pos:R:3:forces:R:3 energy=87.49314671607723 pbc="F F F"
Ac       0.00000000       0.00000000       0.00000000       0.00000000       0.00000000    -365.02221680
Ac       0.00000000       0.00000000       0.69595960       0.00000000       0.00000000     365.02221680
2
Properties=species:S:1:pos:R:3:forces:R:3 energy=71.01807965343309 pbc="F F F"
Ac       0.00000000       0.00000000       0.00000000       0.00000000       0.00000000    -203.29307556
Ac       0.00000000       0.00000000       0.75555556       0.00000000       0.00000000     203.29307556
2
Properties=species:S:1:pos:R:3:forces:R:3 energy=61.900648088835815 pbc="F F F"
Ac       0.00000000       0.00000000       0.00000000       0.00000000       0.00000000    -111.08647919
Ac       0.00000000       0.00000000       0.81515152       0.00000000       0.00000000     111.08647919
2
Properties=species:S:1:pos:R:3:forces:R:3 energy=57.01389515861589 pbc="F F F"
Ac       0.00000000       0.00000000       0.00000000       0.00000000       0.00000000     -57.77185822
Ac       0.00000000       0.00000000       0.87474747       0.00000000       0.00000000      57.77185822
2
Properties=species:S:1:pos:R:3:forces:R:3 energy=54.56458124392487 pbc="F F F"
Ac       0.00000000       0.00000000       0.00000000       0.00000000       0.00000000     -27.32275772
Ac       0.00000000       0.00000000       0.93434343       0.00000000       0.00000000      27.32275772
2
Properties=species:S:1:pos:R:3:forces:R:3 energy=53.490435251941264 pbc="F F F"
Ac       0.00000000       0.00000000       0.00000000       0.00000000       0.00000000     -10.41654396
Ac       0.00000000       0.00000000       0.99393939       0.00000000       0.00000000      10.41654396
2
Properties=species:S:1:pos:R:3:forces:R:3 energy=53.16886425663969 pbc="F F F"
Ac       0.00000000       0.00000000       0.00000000       0.00000000       0.00000000      -1.35876071
Ac       0.00000000       0.00000000       1.05353535       0.00000000       0.00000000       1.35876071
2
Properties=species:S:1:pos:R:3:forces:R:3 energy=53.23442415069826 pbc="F F F"
Ac       0.00000000       0.00000000       0.00000000       0.00000000       0.00000000       2.90706730
Ac       0.00000000       0.00000000       1.11313131       0.00000000       0.00000000      -2.90706730
2
Properties=species:S:1:pos:R:3:forces:R:3 energy=53.44460318484941 pbc="F F F"
Ac       0.00000000       0.00000000       0.00000000       0.00000000       0.00000000       3.57438731
Ac       0.00000000       0.00000000       1.17272727       0.00000000       0.00000000      -3.57438731
2
Properties=species:S:1:pos:R:3:forces:R:3 energy=53.59186279237067 pbc="F F F"
Ac       0.00000000       0.00000000       0.00000000       0.00000000       0.00000000       0.77536821
Ac       0.00000000       0.00000000       1.23232323       0.00000000       0.00000000      -0.77536821
2
Properties=species:S:1:pos:R:3:forces:R:3 energy=53.46439958766789 pbc="F F F"
Ac       0.00000000       0.00000000       0.00000000       0.00000000       0.00000000      -5.66964817
Ac       0.00000000       0.00000000       1.29191919       0.00000000       0.00000000       5.66964817
2
Properties=species:S:1:pos:R:3:forces:R:3 energy=52.84445545538659 pbc="F F F"
Ac       0.00000000       0.00000000       0.00000000       0.00000000       0.00000000     -15.70027828
Ac       0.00000000       0.00000000       1.35151515       0.00000000       0.00000000      15.70027828
2
Properties=species:S:1:pos:R:3:forces:R:3 energy=51.53436426532774 pbc="F F F"
Ac       0.00000000       0.00000000       0.00000000       0.00000000       0.00000000     -28.65866852
Ac       0.00000000       0.00000000       1.41111111       0.00000000       0.00000000      28.65866852
2
Properties=species:S:1:pos:R:3:forces:R:3 energy=49.39665205880305 pbc="F F F"
Ac       0.00000000       0.00000000       0.00000000       0.00000000       0.00000000     -43.21269608
Ac       0.00000000       0.00000000       1.47070707       0.00000000       0.00000000      43.21269608
2
Properties=species:S:1:pos:R:3:forces:R:3 energy=46.384688039793964 pbc="F F F"
Ac       0.00000000       0.00000000       0.00000000       0.00000000       0.00000000     -57.72634125
Ac       0.00000000       0.00000000       1.53030303       0.00000000       0.00000000      57.72634125
2
Properties=species:S:1:pos:R:3:forces:R:3 energy=42.54699144419228 pbc="F F F"
Ac       0.00000000       0.00000000       0.00000000       0.00000000       0.00000000     -70.69708252
Ac       0.00000000       0.00000000       1.58989899       0.00000000       0.00000000      70.69708252
2
Properties=species:S:1:pos:R:3:forces:R:3 energy=38.013574898246624 pbc="F F F"
Ac       0.00000000       0.00000000       0.00000000       0.00000000       0.00000000     -80.88127136
Ac       0.00000000       0.00000000       1.64949495       0.00000000       0.00000000      80.88127136
2
Properties=species:S:1:pos:R:3:forces:R:3 energy=32.98564472327398 pbc="F F F"
Ac       0.00000000       0.00000000       0.00000000       0.00000000       0.00000000     -87.06677246
Ac       0.00000000       0.00000000       1.70909091       0.00000000       0.00000000      87.06677246
2
Properties=species:S:1:pos:R:3:forces:R:3 energy=27.74782897308724 pbc="F F F"
Ac       0.00000000       0.00000000       0.00000000       0.00000000       0.00000000     -87.61276245
Ac       0.00000000       0.00000000       1.76868687       0.00000000       0.00000000      87.61276245
2
Properties=species:S:1:pos:R:3:forces:R:3 energy=22.68624001287663 pbc="F F F"
Ac       0.00000000       0.00000000       0.00000000       0.00000000       0.00000000     -81.04436493
Ac       0.00000000       0.00000000       1.82828283       0.00000000       0.00000000      81.04436493
2
Properties=species:S:1:pos:R:3:forces:R:3 energy=18.205794834031007 pbc="F F F"
Ac       0.00000000       0.00000000       0.00000000       0.00000000       0.00000000     -68.69058228
Ac       0.00000000       0.00000000       1.88787879       0.00000000       0.00000000      68.69058228
2
Properties=species:S:1:pos:R:3:forces:R:3 energy=14.518687065009257 pbc="F F F"
Ac       0.00000000       0.00000000       0.00000000       0.00000000       0.00000000     -55.29147720
Ac       0.00000000       0.00000000       1.94747475       0.00000000       0.00000000      55.29147720
2
Properties=species:S:1:pos:R:3:forces:R:3 energy=11.56180087295746 pbc="F F F"
Ac       0.00000000       0.00000000       0.00000000       0.00000000       0.00000000     -44.43247223
Ac       0.00000000       0.00000000       2.00707071       0.00000000       0.00000000      44.43247223
2
Properties=species:S:1:pos:R:3:forces:R:3 energy=9.178177002952562 pbc="F F F"
Ac       0.00000000       0.00000000       0.00000000       0.00000000       0.00000000     -35.79173279
Ac       0.00000000       0.00000000       2.06666667       0.00000000       0.00000000      35.79173279
2
Properties=species:S:1:pos:R:3:forces:R:3 energy=7.276413190421457 pbc="F F F"
Ac       0.00000000       0.00000000       0.00000000       0.00000000       0.00000000     -28.19789886
Ac       0.00000000       0.00000000       2.12626263       0.00000000       0.00000000      28.19789886
2
Properties=species:S:1:pos:R:3:forces:R:3 energy=5.788058786398118 pbc="F F F"
Ac       0.00000000       0.00000000       0.00000000       0.00000000       0.00000000     -22.07446098
Ac       0.00000000       0.00000000       2.18585859       0.00000000       0.00000000      22.07446098
2
Properties=species:S:1:pos:R:3:forces:R:3 energy=4.602688234595811 pbc="F F F"
Ac       0.00000000       0.00000000       0.00000000       0.00000000       0.00000000     -18.05522156
Ac       0.00000000       0.00000000       2.24545455       0.00000000       0.00000000      18.05522156
2
Properties=species:S:1:pos:R:3:forces:R:3 energy=3.6009733782989968 pbc="F F F"
Ac       0.00000000       0.00000000       0.00000000       0.00000000       0.00000000     -15.78435135
Ac       0.00000000       0.00000000       2.30505051       0.00000000       0.00000000      15.78435135
2
Properties=species:S:1:pos:R:3:forces:R:3 energy=2.7035813556438897 pbc="F F F"
Ac       0.00000000       0.00000000       0.00000000       0.00000000       0.00000000     -14.41428471
Ac       0.00000000       0.00000000       2.36464646       0.00000000       0.00000000      14.41428471
2
Properties=species:S:1:pos:R:3:forces:R:3 energy=1.878757018186028 pbc="F F F"
Ac       0.00000000       0.00000000       0.00000000       0.00000000       0.00000000     -13.26571751
Ac       0.00000000       0.00000000       2.42424242       0.00000000       0.00000000      13.26571751
2
Properties=species:S:1:pos:R:3:forces:R:3 energy=1.1245578120424322 pbc="F F F"
Ac       0.00000000       0.00000000       0.00000000       0.00000000       0.00000000     -12.01862526
Ac       0.00000000       0.00000000       2.48383838       0.00000000       0.00000000      12.01862526
2
Properties=species:S:1:pos:R:3:forces:R:3 energy=0.44921626689715244 pbc="F F F"
Ac       0.00000000       0.00000000       0.00000000       0.00000000       0.00000000     -10.62575054
Ac       0.00000000       0.00000000       2.54343434       0.00000000       0.00000000      10.62575054
2
Properties=species:S:1:pos:R:3:forces:R:3 energy=-0.14054017337047528 pbc="F F F"
Ac       0.00000000       0.00000000       0.00000000       0.00000000       0.00000000      -9.16251945
Ac       0.00000000       0.00000000       2.60303030       0.00000000       0.00000000       9.16251945
2
Properties=species:S:1:pos:R:3:forces:R:3 energy=-0.6433452478369951 pbc="F F F"
Ac       0.00000000       0.00000000       0.00000000       0.00000000       0.00000000      -7.72153378
Ac       0.00000000       0.00000000       2.66262626       0.00000000       0.00000000       7.72153378
2
Properties=species:S:1:pos:R:3:forces:R:3 energy=-1.0627160280976675 pbc="F F F"
Ac       0.00000000       0.00000000       0.00000000       0.00000000       0.00000000      -6.37168264
Ac       0.00000000       0.00000000       2.72222222       0.00000000       0.00000000       6.37168264
2
Properties=species:S:1:pos:R:3:forces:R:3 energy=-1.4054604520525147 pbc="F F F"
Ac       0.00000000       0.00000000       0.00000000       0.00000000       0.00000000      -5.15528059
Ac       0.00000000       0.00000000       2.78181818       0.00000000       0.00000000       5.15528059
2
Properties=species:S:1:pos:R:3:forces:R:3 energy=-1.6803183811869995 pbc="F F F"
Ac       0.00000000       0.00000000       0.00000000       0.00000000       0.00000000      -4.09635496
Ac       0.00000000       0.00000000       2.84141414       0.00000000       0.00000000       4.09635496
2
Properties=species:S:1:pos:R:3:forces:R:3 energy=-1.89709745618387 pbc="F F F"
Ac       0.00000000       0.00000000       0.00000000       0.00000000       0.00000000      -3.20752716
Ac       0.00000000       0.00000000       2.90101010       0.00000000       0.00000000       3.20752716
2
Properties=species:S:1:pos:R:3:forces:R:3 energy=-2.0660806610161604 pbc="F F F"
Ac       0.00000000       0.00000000       0.00000000       0.00000000       0.00000000      -2.49206972
Ac       0.00000000       0.00000000       2.96060606       0.00000000       0.00000000       2.49206972
2
Properties=species:S:1:pos:R:3:forces:R:3 energy=-2.19742816874609 pbc="F F F"
Ac       0.00000000       0.00000000       0.00000000       0.00000000       0.00000000      -1.94208837
Ac       0.00000000       0.00000000       3.02020202       0.00000000       0.00000000       1.94208837
2
Properties=species:S:1:pos:R:3:forces:R:3 energy=-2.300435248690417 pbc="F F F"
Ac       0.00000000       0.00000000       0.00000000       0.00000000       0.00000000      -1.53634155
Ac       0.00000000       0.00000000       3.07979798       0.00000000       0.00000000       1.53634155
2
Properties=species:S:1:pos:R:3:forces:R:3 energy=-2.3827674369617777 pbc="F F F"
Ac       0.00000000       0.00000000       0.00000000       0.00000000       0.00000000      -1.24214292
Ac       0.00000000       0.00000000       3.13939394       0.00000000       0.00000000       1.24214292
2
Properties=species:S:1:pos:R:3:forces:R:3 energy=-2.4499720046247044 pbc="F F F"
Ac       0.00000000       0.00000000       0.00000000       0.00000000       0.00000000      -1.02278173
Ac       0.00000000       0.00000000       3.19898990       0.00000000       0.00000000       1.02278173
2
Properties=species:S:1:pos:R:3:forces:R:3 energy=-2.505532648921065 pbc="F F F"
Ac       0.00000000       0.00000000       0.00000000       0.00000000       0.00000000      -0.84708363
Ac       0.00000000       0.00000000       3.25858586       0.00000000       0.00000000       0.84708363
2
Properties=species:S:1:pos:R:3:forces:R:3 energy=-2.55140096162494 pbc="F F F"
Ac       0.00000000       0.00000000       0.00000000       0.00000000       0.00000000      -0.69512516
Ac       0.00000000       0.00000000       3.31818182       0.00000000       0.00000000       0.69512516
2
Properties=species:S:1:pos:R:3:forces:R:3 energy=-2.5886726118114343 pbc="F F F"
Ac       0.00000000       0.00000000       0.00000000       0.00000000       0.00000000      -0.55776876
Ac       0.00000000       0.00000000       3.37777778       0.00000000       0.00000000       0.55776876
2
Properties=species:S:1:pos:R:3:forces:R:3 energy=-2.618115894503971 pbc="F F F"
Ac       0.00000000       0.00000000       0.00000000       0.00000000       0.00000000      -0.43221134
Ac       0.00000000       0.00000000       3.43737374       0.00000000       0.00000000       0.43221134
2
Properties=species:S:1:pos:R:3:forces:R:3 energy=-2.6404010996827685 pbc="F F F"
Ac       0.00000000       0.00000000       0.00000000       0.00000000       0.00000000      -0.31732118
Ac       0.00000000       0.00000000       3.49696970       0.00000000       0.00000000       0.31732118
2
Properties=species:S:1:pos:R:3:forces:R:3 energy=-2.656106437071358 pbc="F F F"
Ac       0.00000000       0.00000000       0.00000000       0.00000000       0.00000000      -0.21080242
Ac       0.00000000       0.00000000       3.55656566       0.00000000       0.00000000       0.21080242
2
Properties=species:S:1:pos:R:3:forces:R:3 energy=-2.665611300640877 pbc="F F F"
Ac       0.00000000       0.00000000       0.00000000       0.00000000       0.00000000      -0.10845131
Ac       0.00000000       0.00000000       3.61616162       0.00000000       0.00000000       0.10845131
2
Properties=species:S:1:pos:R:3:forces:R:3 energy=-2.669012845114057 pbc="F F F"
Ac       0.00000000       0.00000000       0.00000000       0.00000000       0.00000000      -0.00518840
Ac       0.00000000       0.00000000       3.67575758       0.00000000       0.00000000       0.00518840
2
Properties=species:S:1:pos:R:3:forces:R:3 energy=-2.6661315456202748 pbc="F F F"
Ac       0.00000000       0.00000000       0.00000000       0.00000000       0.00000000       0.10290994
Ac       0.00000000       0.00000000       3.73535354       0.00000000       0.00000000      -0.10290994
2
Properties=species:S:1:pos:R:3:forces:R:3 energy=-2.6566271958378804 pbc="F F F"
Ac       0.00000000       0.00000000       0.00000000       0.00000000       0.00000000       0.21691249
Ac       0.00000000       0.00000000       3.79494949       0.00000000       0.00000000      -0.21691249
2
Properties=species:S:1:pos:R:3:forces:R:3 energy=-2.6402027788860036 pbc="F F F"
Ac       0.00000000       0.00000000       0.00000000       0.00000000       0.00000000       0.33456811
Ac       0.00000000       0.00000000       3.85454545       0.00000000       0.00000000      -0.33456811
2
Properties=species:S:1:pos:R:3:forces:R:3 energy=-2.616770672752668 pbc="F F F"
Ac       0.00000000       0.00000000       0.00000000       0.00000000       0.00000000       0.45113695
Ac       0.00000000       0.00000000       3.91414141       0.00000000       0.00000000      -0.45113695
2
Properties=species:S:1:pos:R:3:forces:R:3 energy=-2.5865650444799533 pbc="F F F"
Ac       0.00000000       0.00000000       0.00000000       0.00000000       0.00000000       0.56097299
Ac       0.00000000       0.00000000       3.97373737       0.00000000       0.00000000      -0.56097299
2
Properties=species:S:1:pos:R:3:forces:R:3 energy=-2.5501395800198 pbc="F F F"
Ac       0.00000000       0.00000000       0.00000000       0.00000000       0.00000000       0.65918064
Ac       0.00000000       0.00000000       4.03333333       0.00000000       0.00000000      -0.65918064
2
Properties=species:S:1:pos:R:3:forces:R:3 energy=-2.508288139196421 pbc="F F F"
Ac       0.00000000       0.00000000       0.00000000       0.00000000       0.00000000       0.74277467
Ac       0.00000000       0.00000000       4.09292929       0.00000000       0.00000000      -0.74277467
2
Properties=species:S:1:pos:R:3:forces:R:3 energy=-2.4619145941693032 pbc="F F F"
Ac       0.00000000       0.00000000       0.00000000       0.00000000       0.00000000       0.81091708
Ac       0.00000000       0.00000000       4.15252525       0.00000000       0.00000000      -0.81091708
2
Properties=species:S:1:pos:R:3:forces:R:3 energy=-2.4119266444664875 pbc="F F F"
Ac       0.00000000       0.00000000       0.00000000       0.00000000       0.00000000       0.86433417
Ac       0.00000000       0.00000000       4.21212121       0.00000000       0.00000000      -0.86433417
2
Properties=species:S:1:pos:R:3:forces:R:3 energy=-2.35915903353081 pbc="F F F"
Ac       0.00000000       0.00000000       0.00000000       0.00000000       0.00000000       0.90438044
Ac       0.00000000       0.00000000       4.27171717       0.00000000       0.00000000      -0.90438044
2
Properties=species:S:1:pos:R:3:forces:R:3 energy=-2.3043722322500253 pbc="F F F"
Ac       0.00000000       0.00000000       0.00000000       0.00000000       0.00000000       0.93230659
Ac       0.00000000       0.00000000       4.33131313       0.00000000       0.00000000      -0.93230659
2
Properties=species:S:1:pos:R:3:forces:R:3 energy=-2.2482582853796838 pbc="F F F"
Ac       0.00000000       0.00000000       0.00000000       0.00000000       0.00000000       0.94903737
Ac       0.00000000       0.00000000       4.39090909       0.00000000       0.00000000      -0.94903737
2
Properties=species:S:1:pos:R:3:forces:R:3 energy=-2.191459836680213 pbc="F F F"
Ac       0.00000000       0.00000000       0.00000000       0.00000000       0.00000000       0.95541453
Ac       0.00000000       0.00000000       4.45050505       0.00000000       0.00000000      -0.95541453
2
Properties=species:S:1:pos:R:3:forces:R:3 energy=-2.1345627252696766 pbc="F F F"
Ac       0.00000000       0.00000000       0.00000000       0.00000000       0.00000000       0.95265335
Ac       0.00000000       0.00000000       4.51010101       0.00000000       0.00000000      -0.95265335
2
Properties=species:S:1:pos:R:3:forces:R:3 energy=-2.078053947926117 pbc="F F F"
Ac       0.00000000       0.00000000       0.00000000       0.00000000       0.00000000       0.94273132
Ac       0.00000000       0.00000000       4.56969697       0.00000000       0.00000000      -0.94273132
2
Properties=species:S:1:pos:R:3:forces:R:3 energy=-2.022281556417021 pbc="F F F"
Ac       0.00000000       0.00000000       0.00000000       0.00000000       0.00000000       0.92852521
Ac       0.00000000       0.00000000       4.62929293       0.00000000       0.00000000      -0.92852521
2
Properties=species:S:1:pos:R:3:forces:R:3 energy=-1.967397424369044 pbc="F F F"
Ac       0.00000000       0.00000000       0.00000000       0.00000000       0.00000000       0.91355801
Ac       0.00000000       0.00000000       4.68888889       0.00000000       0.00000000      -0.91355801
2
Properties=species:S:1:pos:R:3:forces:R:3 energy=-1.9133387444855536 pbc="F F F"
Ac       0.00000000       0.00000000       0.00000000       0.00000000       0.00000000       0.90124702
Ac       0.00000000       0.00000000       4.74848485       0.00000000       0.00000000      -0.90124702
2
Properties=species:S:1:pos:R:3:forces:R:3 energy=-1.8598760393800486 pbc="F F F"
Ac       0.00000000       0.00000000       0.00000000       0.00000000       0.00000000       0.89388770
Ac       0.00000000       0.00000000       4.80808081       0.00000000       0.00000000      -0.89388770
2
Properties=species:S:1:pos:R:3:forces:R:3 energy=-1.8066942745782075 pbc="F F F"
Ac       0.00000000       0.00000000       0.00000000       0.00000000       0.00000000       0.89148289
Ac       0.00000000       0.00000000       4.86767677       0.00000000       0.00000000      -0.89148289
2
Properties=species:S:1:pos:R:3:forces:R:3 energy=-1.7535733540535583 pbc="F F F"
Ac       0.00000000       0.00000000       0.00000000       0.00000000       0.00000000       0.89116365
Ac       0.00000000       0.00000000       4.92727273       0.00000000       0.00000000      -0.89116365
2
Properties=species:S:1:pos:R:3:forces:R:3 energy=-1.700527005385448 pbc="F F F"
Ac       0.00000000       0.00000000       0.00000000       0.00000000       0.00000000       0.88827235
Ac       0.00000000       0.00000000       4.98686869       0.00000000       0.00000000      -0.88827235
2
Properties=species:S:1:pos:R:3:forces:R:3 energy=-1.6478032197502883 pbc="F F F"
Ac       0.00000000       0.00000000       0.00000000       0.00000000       0.00000000       0.88078308
Ac       0.00000000       0.00000000       5.04646465       0.00000000       0.00000000      -0.88078308
2
Properties=species:S:1:pos:R:3:forces:R:3 energy=-1.5954880560959346 pbc="F F F"
Ac       0.00000000       0.00000000       0.00000000       0.00000000       0.00000000       0.87692565
Ac       0.00000000       0.00000000       5.10606061       0.00000000       0.00000000      -0.87692565
2
Properties=species:S:1:pos:R:3:forces:R:3 energy=-1.5427624599203569 pbc="F F F"
Ac       0.00000000       0.00000000       0.00000000       0.00000000       0.00000000       0.89877504
Ac       0.00000000       0.00000000       5.16565657       0.00000000       0.00000000      -0.89877504
2
Properties=species:S:1:pos:R:3:forces:R:3 energy=-1.4874153871905385 pbc="F F F"
Ac       0.00000000       0.00000000       0.00000000       0.00000000       0.00000000       0.96676207
Ac       0.00000000       0.00000000       5.22525253       0.00000000       0.00000000      -0.96676207
2
Properties=species:S:1:pos:R:3:forces:R:3 energy=-1.4268865026555977 pbc="F F F"
Ac       0.00000000       0.00000000       0.00000000       0.00000000       0.00000000       1.06566942
Ac       0.00000000       0.00000000       5.28484848       0.00000000       0.00000000      -1.06566942
2
Properties=species:S:1:pos:R:3:forces:R:3 energy=-1.3609913548910746 pbc="F F F"
Ac       0.00000000       0.00000000       0.00000000       0.00000000       0.00000000       1.13475919
Ac       0.00000000       0.00000000       5.34444444       0.00000000       0.00000000      -1.13475919
2
Properties=species:S:1:pos:R:3:forces:R:3 energy=-1.2933155467792072 pbc="F F F"
Ac       0.00000000       0.00000000       0.00000000       0.00000000       0.00000000       1.12193811
Ac       0.00000000       0.00000000       5.40404040       0.00000000       0.00000000      -1.12193811
2
Properties=species:S:1:pos:R:3:forces:R:3 energy=-1.2283789912647425 pbc="F F F"
Ac       0.00000000       0.00000000       0.00000000       0.00000000       0.00000000       1.05554259
Ac       0.00000000       0.00000000       5.46363636       0.00000000       0.00000000      -1.05554259
2
Properties=species:S:1:pos:R:3:forces:R:3 energy=-1.1663353831687056 pbc="F F F"
Ac       0.00000000       0.00000000       0.00000000       0.00000000       0.00000000       1.04936647
Ac       0.00000000       0.00000000       5.52323232       0.00000000       0.00000000      -1.04936647
2
Properties=species:S:1:pos:R:3:forces:R:3 energy=-1.0996832517356077 pbc="F F F"
Ac       0.00000000       0.00000000       0.00000000       0.00000000       0.00000000       1.22203398
Ac       0.00000000       0.00000000       5.58282828       0.00000000       0.00000000      -1.22203398
2
Properties=species:S:1:pos:R:3:forces:R:3 energy=-1.017145340441989 pbc="F F F"
Ac       0.00000000       0.00000000       0.00000000       0.00000000       0.00000000       1.56544614
Ac       0.00000000       0.00000000       5.64242424       0.00000000       0.00000000      -1.56544614
2
Properties=species:S:1:pos:R:3:forces:R:3 energy=-0.9136364147032948 pbc="F F F"
Ac       0.00000000       0.00000000       0.00000000       0.00000000       0.00000000       1.87470484
Ac       0.00000000       0.00000000       5.70202020       0.00000000       0.00000000      -1.87470484
2
Properties=species:S:1:pos:R:3:forces:R:3 energy=-0.800285637173039 pbc="F F F"
Ac       0.00000000       0.00000000       0.00000000       0.00000000       0.00000000       1.86352229
Ac       0.00000000       0.00000000       5.76161616       0.00000000       0.00000000      -1.86352229
2
Properties=species:S:1:pos:R:3:forces:R:3 energy=-0.7000477700420384 pbc="F F F"
Ac       0.00000000       0.00000000       0.00000000       0.00000000       0.00000000       1.43579805
Ac       0.00000000       0.00000000       5.82121212       0.00000000       0.00000000      -1.43579805
2
Properties=species:S:1:pos:R:3:forces:R:3 energy=-0.6337919061942163 pbc="F F F"
Ac       0.00000000       0.00000000       0.00000000       0.00000000       0.00000000       0.78678358
Ac       0.00000000       0.00000000       5.88080808       0.00000000       0.00000000      -0.78678358
2
Properties=species:S:1:pos:R:3:forces:R:3 energy=-0.604020242490452 pbc="F F F"
Ac       0.00000000       0.00000000       0.00000000       0.00000000       0.00000000       0.24314058
Ac       0.00000000       0.00000000       5.94040404       0.00000000       0.00000000      -0.24314058
2
Properties=species:S:1:pos:R:3:forces:R:3 energy=-0.5978550879299225 pbc="F F F"
Ac       0.00000000       0.00000000       0.00000000       0.00000000       0.00000000       0.03497398
Ac       0.00000000       0.00000000       6.00000000       0.00000000       0.00000000      -0.03497398
