2
Properties=species:S:1:pos:R:3:forces:R:3 energy=18967.961759285605 pbc="F F F"
Ac       0.00000000       0.00000000       0.00000000       0.00000000       0.00000000 -340208.59375000
Ac       0.00000000       0.00000000       0.18000000       0.00000000       0.00000000  340208.59375000
2
Properties=species:S:1:pos:R:3:forces:R:3 energy=7184.270841316856 pbc="F F F"
Ac       0.00000000       0.00000000       0.00000000       0.00000000       0.00000000 -110049.57812500
Ac       0.00000000       0.00000000       0.23878788       0.00000000       0.00000000  110049.57812500
2
Properties=species:S:1:pos:R:3:forces:R:3 energy=3080.0262124106052 pbc="F F F"
Ac       0.00000000       0.00000000       0.00000000       0.00000000       0.00000000  -41830.77734375
Ac       0.00000000       0.00000000       0.29757576       0.00000000       0.00000000   41830.77734375
2
Properties=species:S:1:pos:R:3:forces:R:3 energy=1446.125211434043 pbc="F F F"
Ac       0.00000000       0.00000000       0.00000000       0.00000000       0.00000000  -17598.63281250
Ac       0.00000000       0.00000000       0.35636364       0.00000000       0.00000000   17598.63281250
2
Properties=species:S:1:pos:R:3:forces:R:3 energy=735.0887124106054 pbc="F F F"
Ac       0.00000000       0.00000000       0.00000000       0.00000000       0.00000000   -7980.51464844
Ac       0.00000000       0.00000000       0.41515152       0.00000000       0.00000000    7980.51464844
2
Properties=species:S:1:pos:R:3:forces:R:3 energy=403.52605983538604 pbc="F F F"
Ac       0.00000000       0.00000000       0.00000000       0.00000000       0.00000000   -3850.36279297
Ac       0.00000000       0.00000000       0.47393939       0.00000000       0.00000000    3850.36279297
2
Properties=species:S:1:pos:R:3:forces:R:3 energy=239.64246914981513 pbc="F F F"
Ac       0.00000000       0.00000000       0.00000000       0.00000000       0.00000000   -1959.08789062
Ac       0.00000000       0.00000000       0.53272727       0.00000000       0.00000000    1959.08789062
2
Properties=species:S:1:pos:R:3:forces:R:3 energy=154.52844023182234 pbc="F F F"
Ac       0.00000000       0.00000000       0.00000000       0.00000000       0.00000000   -1041.88964844
Ac       0.00000000       0.00000000       0.59151515       0.00000000       0.00000000    1041.88964844
2
Properties=species:S:1:pos:R:3:forces:R:3 energy=108.53446747884462 pbc="F F F"
Ac       0.00000000       0.00000000       0.00000000       0.00000000       0.00000000    -572.83654785
Ac       0.00000000       0.00000000       0.65030303       0.00000000       0.00000000     572.83654785
2
Properties=species:S:1:pos:R:3:forces:R:3 energy=82.99545080589695 pbc="F F F"
Ac       0.00000000       0.00000000       0.00000000       0.00000000       0.00000000    -320.96063232
Ac       0.00000000       0.00000000       0.70909091       0.00000000       0.00000000     320.96063232
2
Properties=species:S:1:pos:R:3:forces:R:3 energy=68.65999402110887 pbc="F F F"
Ac       0.00000000       0.00000000       0.00000000       0.00000000       0.00000000    -179.85304260
Ac       0.00000000       0.00000000       0.76787879       0.00000000       0.00000000     179.85304260
2
Properties=species:S:1:pos:R:3:forces:R:3 energy=60.6959247560241 pbc="F F F"
Ac       0.00000000       0.00000000       0.00000000       0.00000000       0.00000000     -98.38825226
Ac       0.00000000       0.00000000       0.82666667       0.00000000       0.00000000      98.38825226
2
Properties=species:S:1:pos:R:3:forces:R:3 energy=56.432424694456515 pbc="F F F"
Ac       0.00000000       0.00000000       0.00000000       0.00000000       0.00000000     -50.94748306
Ac       0.00000000       0.00000000       0.88545455       0.00000000       0.00000000      50.94748306
2
Properties=species:S:1:pos:R:3:forces:R:3 energy=54.31202543477077 pbc="F F F"
Ac       0.00000000       0.00000000       0.00000000       0.00000000       0.00000000     -23.76737404
Ac       0.00000000       0.00000000       0.94424242       0.00000000       0.00000000      23.76737404
2
Properties=species:S:1:pos:R:3:forces:R:3 energy=53.40395991764068 pbc="F F F"
Ac       0.00000000       0.00000000       0.00000000       0.00000000       0.00000000      -8.63022041
Ac       0.00000000       0.00000000       1.00303030       0.00000000       0.00000000       8.63022041
2
Properties=species:S:1:pos:R:3:forces:R:3 energy=53.161162446216835 pbc="F F F"
Ac       0.00000000       0.00000000       0.00000000       0.00000000       0.00000000      -0.52231371
Ac       0.00000000       0.00000000       1.06181818       0.00000000       0.00000000       0.52231371
2
Properties=species:S:1:pos:R:3:forces:R:3 energy=53.25728189274162 pbc="F F F"
Ac       0.00000000       0.00000000       0.00000000       0.00000000       0.00000000       3.17840624
Ac       0.00000000       0.00000000       1.12060606       0.00000000       0.00000000      -3.17840624
2
Properties=species:S:1:pos:R:3:forces:R:3 energy=53.4679568375373 pbc="F F F"
Ac       0.00000000       0.00000000       0.00000000       0.00000000       0.00000000       3.43652391
Ac       0.00000000       0.00000000       1.17939394       0.00000000       0.00000000      -3.43652391
2
Properties=species:S:1:pos:R:3:forces:R:3 energy=53.594968044643906 pbc="F F F"
Ac       0.00000000       0.00000000       0.00000000       0.00000000       0.00000000       0.30570307
Ac       0.00000000       0.00000000       1.23818182       0.00000000       0.00000000      -0.30570307
2
Properties=species:S:1:pos:R:3:forces:R:3 energy=53.433946973438005 pbc="F F F"
Ac       0.00000000       0.00000000       0.00000000       0.00000000       0.00000000      -6.38512564
Ac       0.00000000       0.00000000       1.29696970       0.00000000       0.00000000       6.38512564
2
Properties=species:S:1:pos:R:3:forces:R:3 energy=52.77602371518014 pbc="F F F"
Ac       0.00000000       0.00000000       0.00000000       0.00000000       0.00000000     -16.53825378
Ac       0.00000000       0.00000000       1.35575758       0.00000000       0.00000000      16.53825378
2
Properties=species:S:1:pos:R:3:forces:R:3 energy=51.434526135204685 pbc="F F F"
Ac       0.00000000       0.00000000       0.00000000       0.00000000       0.00000000     -29.46940231
Ac       0.00000000       0.00000000       1.41454545       0.00000000       0.00000000      29.46940231
2
Properties=species:S:1:pos:R:3:forces:R:3 energy=49.28230279493898 pbc="F F F"
Ac       0.00000000       0.00000000       0.00000000       0.00000000       0.00000000     -43.86501694
Ac       0.00000000       0.00000000       1.47333333       0.00000000       0.00000000      43.86501694
2
Properties=species:S:1:pos:R:3:forces:R:3 energy=46.279387237843956 pbc="F F F"
Ac       0.00000000       0.00000000       0.00000000       0.00000000       0.00000000     -58.15188599
Ac       0.00000000       0.00000000       1.53212121       0.00000000       0.00000000      58.15188599
2
Properties=species:S:1:pos:R:3:forces:R:3 energy=42.47549263669911 pbc="F F F"
Ac       0.00000000       0.00000000       0.00000000       0.00000000       0.00000000     -70.89619446
Ac       0.00000000       0.00000000       1.59090909       0.00000000       0.00000000      70.89619446
2
Properties=species:S:1:pos:R:3:forces:R:3 energy=37.99725945071283 pbc="F F F"
Ac       0.00000000       0.00000000       0.00000000       0.00000000       0.00000000     -80.90974426
Ac       0.00000000       0.00000000       1.64969697       0.00000000       0.00000000      80.90974426
2
Properties=species:S:1:pos:R:3:forces:R:3 energy=33.03841336719293 pbc="F F F"
Ac       0.00000000       0.00000000       0.00000000       0.00000000       0.00000000     -87.02905273
Ac       0.00000000       0.00000000       1.70848485       0.00000000       0.00000000      87.02905273
2
Properties=species:S:1:pos:R:3:forces:R:3 energy=27.871762613146036 pbc="F F F"
Ac       0.00000000       0.00000000       0.00000000       0.00000000       0.00000000     -87.67938232
Ac       0.00000000       0.00000000       1.76727273       0.00000000       0.00000000      87.67938232
2
Properties=species:S:1:pos:R:3:forces:R:3 energy=22.86675503608621 pbc="F F F"
Ac       0.00000000       0.00000000       0.00000000       0.00000000       0.00000000     -81.41476440
Ac       0.00000000       0.00000000       1.82606061       0.00000000       0.00000000      81.41476440
2
Properties=species:S:1:pos:R:3:forces:R:3 energy=18.415011436726534 pbc="F F F"
Ac       0.00000000       0.00000000       0.00000000       0.00000000       0.00000000     -69.38932037
Ac       0.00000000       0.00000000       1.88484848       0.00000000       0.00000000      69.38932037
2
Properties=species:S:1:pos:R:3:forces:R:3 energy=14.732433405295806 pbc="F F F"
Ac       0.00000000       0.00000000       0.00000000       0.00000000       0.00000000     -56.09445953
Ac       0.00000000       0.00000000       1.94363636       0.00000000       0.00000000      56.09445953
2
Properties=species:S:1:pos:R:3:forces:R:3 energy=11.76997175442195 pbc="F F F"
Ac       0.00000000       0.00000000       0.00000000       0.00000000       0.00000000     -45.17806625
Ac       0.00000000       0.00000000       2.00242424       0.00000000       0.00000000      45.17806625
2
Properties=species:S:1:pos:R:3:forces:R:3 energy=9.375419362957983 pbc="F F F"
Ac       0.00000000       0.00000000       0.00000000       0.00000000       0.00000000     -36.53248215
Ac       0.00000000       0.00000000       2.06121212       0.00000000       0.00000000      36.53248215
2
Properties=species:S:1:pos:R:3:forces:R:3 energy=7.455337394828115 pbc="F F F"
Ac       0.00000000       0.00000000       0.00000000       0.00000000       0.00000000     -28.94377136
Ac       0.00000000       0.00000000       2.12000000       0.00000000       0.00000000      28.94377136
2
Properties=species:S:1:pos:R:3:forces:R:3 energy=5.9463115678025495 pbc="F F F"
Ac       0.00000000       0.00000000       0.00000000       0.00000000       0.00000000     -22.69458008
Ac       0.00000000       0.00000000       2.17878788       0.00000000       0.00000000      22.69458008
2
Properties=species:S:1:pos:R:3:forces:R:3 energy=4.7465541420163815 pbc="F F F"
Ac       0.00000000       0.00000000       0.00000000       0.00000000       0.00000000     -18.46982002
Ac       0.00000000       0.00000000       2.23757576       0.00000000       0.00000000      18.46982002
2
Properties=species:S:1:pos:R:3:forces:R:3 energy=3.739185582917888 pbc="F F F"
Ac       0.00000000       0.00000000       0.00000000       0.00000000       0.00000000     -16.03897476
Ac       0.00000000       0.00000000       2.29636364       0.00000000       0.00000000      16.03897476
2
Properties=species:S:1:pos:R:3:forces:R:3 energy=2.8413548353910407 pbc="F F F"
Ac       0.00000000       0.00000000       0.00000000       0.00000000       0.00000000     -14.60443211
Ac       0.00000000       0.00000000       2.35515152       0.00000000       0.00000000      14.60443211
2
Properties=species:S:1:pos:R:3:forces:R:3 energy=2.0164836876880194 pbc="F F F"
Ac       0.00000000       0.00000000       0.00000000       0.00000000       0.00000000     -13.46671677
Ac       0.00000000       0.00000000       2.41393939       0.00000000       0.00000000      13.46671677
2
Properties=species:S:1:pos:R:3:forces:R:3 energy=1.2594630980916424 pbc="F F F"
Ac       0.00000000       0.00000000       0.00000000       0.00000000       0.00000000     -12.26327991
Ac       0.00000000       0.00000000       2.47272727       0.00000000       0.00000000      12.26327991
2
Properties=species:S:1:pos:R:3:forces:R:3 energy=0.5775787854231933 pbc="F F F"
Ac       0.00000000       0.00000000       0.00000000       0.00000000       0.00000000     -10.91305637
Ac       0.00000000       0.00000000       2.53151515       0.00000000       0.00000000      10.91305637
2
Properties=species:S:1:pos:R:3:forces:R:3 energy=-0.021931756821360213 pbc="F F F"
Ac       0.00000000       0.00000000       0.00000000       0.00000000       0.00000000      -9.47603703
Ac       0.00000000       0.00000000       2.59030303       0.00000000       0.00000000       9.47603703
2
Properties=species:S:1:pos:R:3:forces:R:3 energy=-0.5366636903374716 pbc="F F F"
Ac       0.00000000       0.00000000       0.00000000       0.00000000       0.00000000      -8.04281712
Ac       0.00000000       0.00000000       2.64909091       0.00000000       0.00000000       8.04281712
2
Properties=species:S:1:pos:R:3:forces:R:3 energy=-0.9690798802510912 pbc="F F F"
Ac       0.00000000       0.00000000       0.00000000       0.00000000       0.00000000      -6.68560553
Ac       0.00000000       0.00000000       2.70787879       0.00000000       0.00000000       6.68560553
2
Properties=species:S:1:pos:R:3:forces:R:3 energy=-1.3251255550453052 pbc="F F F"
Ac       0.00000000       0.00000000       0.00000000       0.00000000       0.00000000      -5.45032644
Ac       0.00000000       0.00000000       2.76666667       0.00000000       0.00000000       5.45032644
2
Properties=species:S:1:pos:R:3:forces:R:3 energy=-1.6128265930486443 pbc="F F F"
Ac       0.00000000       0.00000000       0.00000000       0.00000000       0.00000000      -4.36360979
Ac       0.00000000       0.00000000       2.82545455       0.00000000       0.00000000       4.36360979
2
Properties=species:S:1:pos:R:3:forces:R:3 energy=-1.841385208976094 pbc="F F F"
Ac       0.00000000       0.00000000       0.00000000       0.00000000       0.00000000      -3.44003344
Ac       0.00000000       0.00000000       2.88424242       0.00000000       0.00000000       3.44003344
2
Properties=species:S:1:pos:R:3:forces:R:3 energy=-2.0206068038764786 pbc="F F F"
Ac       0.00000000       0.00000000       0.00000000       0.00000000       0.00000000      -2.68526196
Ac       0.00000000       0.00000000       2.94303030       0.00000000       0.00000000       2.68526196
2
Properties=species:S:1:pos:R:3:forces:R:3 energy=-2.160340571789445 pbc="F F F"
Ac       0.00000000       0.00000000       0.00000000       0.00000000       0.00000000      -2.09510469
Ac       0.00000000       0.00000000       3.00181818       0.00000000       0.00000000       2.09510469
2
Properties=species:S:1:pos:R:3:forces:R:3 energy=-2.269849671551304 pbc="F F F"
Ac       0.00000000       0.00000000       0.00000000       0.00000000       0.00000000      -1.65308475
Ac       0.00000000       0.00000000       3.06060606       0.00000000       0.00000000       1.65308475
2
Properties=species:S:1:pos:R:3:forces:R:3 energy=-2.3570533166428578 pbc="F F F"
Ac       0.00000000       0.00000000       0.00000000       0.00000000       0.00000000      -1.33073163
Ac       0.00000000       0.00000000       3.11939394       0.00000000       0.00000000       1.33073163
2
Properties=species:S:1:pos:R:3:forces:R:3 energy=-2.427968414380216 pbc="F F F"
Ac       0.00000000       0.00000000       0.00000000       0.00000000       0.00000000      -1.09302711
Ac       0.00000000       0.00000000       3.17818182       0.00000000       0.00000000       1.09302711
2
Properties=species:S:1:pos:R:3:forces:R:3 energy=-2.4865772205967263 pbc="F F F"
Ac       0.00000000       0.00000000       0.00000000       0.00000000       0.00000000      -0.90728295
Ac       0.00000000       0.00000000       3.23696970       0.00000000       0.00000000       0.90728295
2
Properties=species:S:1:pos:R:3:forces:R:3 energy=-2.535197979163165 pbc="F F F"
Ac       0.00000000       0.00000000       0.00000000       0.00000000       0.00000000      -0.75029057
Ac       0.00000000       0.00000000       3.29575758       0.00000000       0.00000000       0.75029057
2
Properties=species:S:1:pos:R:3:forces:R:3 energy=-2.575112964874344 pbc="F F F"
Ac       0.00000000       0.00000000       0.00000000       0.00000000       0.00000000      -0.60983783
Ac       0.00000000       0.00000000       3.35454545       0.00000000       0.00000000       0.60983783
2
Properties=species:S:1:pos:R:3:forces:R:3 energy=-2.60713690335607 pbc="F F F"
Ac       0.00000000       0.00000000       0.00000000       0.00000000       0.00000000      -0.48150817
Ac       0.00000000       0.00000000       3.41333333       0.00000000       0.00000000       0.48150817
2
Properties=species:S:1:pos:R:3:forces:R:3 energy=-2.631940173287583 pbc="F F F"
Ac       0.00000000       0.00000000       0.00000000       0.00000000       0.00000000      -0.36402956
Ac       0.00000000       0.00000000       3.47212121       0.00000000       0.00000000       0.36402956
2
Properties=species:S:1:pos:R:3:forces:R:3 energy=-2.6501209378612307 pbc="F F F"
Ac       0.00000000       0.00000000       0.00000000       0.00000000       0.00000000      -0.25586680
Ac       0.00000000       0.00000000       3.53090909       0.00000000       0.00000000       0.25586680
2
Properties=species:S:1:pos:R:3:forces:R:3 energy=-2.6621418244748343 pbc="F F F"
Ac       0.00000000       0.00000000       0.00000000       0.00000000       0.00000000      -0.15371497
Ac       0.00000000       0.00000000       3.58969697       0.00000000       0.00000000       0.15371497
2
Properties=species:S:1:pos:R:3:forces:R:3 energy=-2.6682203408843215 pbc="F F F"
Ac       0.00000000       0.00000000       0.00000000       0.00000000       0.00000000      -0.05285724
Ac       0.00000000       0.00000000       3.64848485       0.00000000       0.00000000       0.05285724
2
Properties=species:S:1:pos:R:3:forces:R:3 energy=-2.6682924328390856 pbc="F F F"
Ac       0.00000000       0.00000000       0.00000000       0.00000000       0.00000000       0.05122631
Ac       0.00000000       0.00000000       3.70727273       0.00000000       0.00000000      -0.05122631
2
Properties=species:S:1:pos:R:3:forces:R:3 energy=-2.6620837989156176 pbc="F F F"
Ac       0.00000000       0.00000000       0.00000000       0.00000000       0.00000000       0.16098402
Ac       0.00000000       0.00000000       3.76606061       0.00000000       0.00000000      -0.16098402
2
Properties=species:S:1:pos:R:3:forces:R:3 energy=-2.64926471053846 pbc="F F F"
Ac       0.00000000       0.00000000       0.00000000       0.00000000       0.00000000       0.27573577
Ac       0.00000000       0.00000000       3.82484848       0.00000000       0.00000000      -0.27573577
2
Properties=species:S:1:pos:R:3:forces:R:3 energy=-2.6296341598222934 pbc="F F F"
Ac       0.00000000       0.00000000       0.00000000       0.00000000       0.00000000       0.39195552
Ac       0.00000000       0.00000000       3.88363636       0.00000000       0.00000000      -0.39195552
2
Properties=species:S:1:pos:R:3:forces:R:3 energy=-2.6032536250661 pbc="F F F"
Ac       0.00000000       0.00000000       0.00000000       0.00000000       0.00000000       0.50443631
Ac       0.00000000       0.00000000       3.94242424       0.00000000       0.00000000      -0.50443631
2
Properties=species:S:1:pos:R:3:forces:R:3 energy=-2.5705014785384486 pbc="F F F"
Ac       0.00000000       0.00000000       0.00000000       0.00000000       0.00000000       0.60792404
Ac       0.00000000       0.00000000       4.00121212       0.00000000       0.00000000      -0.60792404
2
Properties=species:S:1:pos:R:3:forces:R:3 energy=-2.5320309407803645 pbc="F F F"
Ac       0.00000000       0.00000000       0.00000000       0.00000000       0.00000000       0.69848734
Ac       0.00000000       0.00000000       4.06000000       0.00000000       0.00000000      -0.69848734
2
Properties=species:S:1:pos:R:3:forces:R:3 energy=-2.4886681975084124 pbc="F F F"
Ac       0.00000000       0.00000000       0.00000000       0.00000000       0.00000000       0.77422100
Ac       0.00000000       0.00000000       4.11878788       0.00000000       0.00000000      -0.77422100
2
Properties=species:S:1:pos:R:3:forces:R:3 energy=-2.441293380394478 pbc="F F F"
Ac       0.00000000       0.00000000       0.00000000       0.00000000       0.00000000       0.83509117
Ac       0.00000000       0.00000000       4.17757576       0.00000000       0.00000000      -0.83509117
2
Properties=species:S:1:pos:R:3:forces:R:3 energy=-2.3907517866553216 pbc="F F F"
Ac       0.00000000       0.00000000       0.00000000       0.00000000       0.00000000       0.88216120
Ac       0.00000000       0.00000000       4.23636364       0.00000000       0.00000000      -0.88216120
2
Properties=species:S:1:pos:R:3:forces:R:3 energy=-2.337816084540096 pbc="F F F"
Ac       0.00000000       0.00000000       0.00000000       0.00000000       0.00000000       0.91674900
Ac       0.00000000       0.00000000       4.29515152       0.00000000       0.00000000      -0.91674900
2
Properties=species:S:1:pos:R:3:forces:R:3 energy=-2.2831884210836955 pbc="F F F"
Ac       0.00000000       0.00000000       0.00000000       0.00000000       0.00000000       0.93993378
Ac       0.00000000       0.00000000       4.35393939       0.00000000       0.00000000      -0.93993378
2
Properties=species:S:1:pos:R:3:forces:R:3 energy=-2.227511653122549 pbc="F F F"
Ac       0.00000000       0.00000000       0.00000000       0.00000000       0.00000000       0.95252174
Ac       0.00000000       0.00000000       4.41272727       0.00000000       0.00000000      -0.95252174
2
Properties=species:S:1:pos:R:3:forces:R:3 energy=-2.1713846821114156 pbc="F F F"
Ac       0.00000000       0.00000000       0.00000000       0.00000000       0.00000000       0.95540130
Ac       0.00000000       0.00000000       4.47151515       0.00000000       0.00000000      -0.95540130
2
Properties=species:S:1:pos:R:3:forces:R:3 energy=-2.1153414606171337 pbc="F F F"
Ac       0.00000000       0.00000000       0.00000000       0.00000000       0.00000000       0.94996649
Ac       0.00000000       0.00000000       4.53030303       0.00000000       0.00000000      -0.94996649
2
Properties=species:S:1:pos:R:3:forces:R:3 energy=-2.059812921373696 pbc="F F F"
Ac       0.00000000       0.00000000       0.00000000       0.00000000       0.00000000       0.93841302
Ac       0.00000000       0.00000000       4.58909091       0.00000000       0.00000000      -0.93841302
2
Properties=species:S:1:pos:R:3:forces:R:3 energy=-2.0050692799861096 pbc="F F F"
Ac       0.00000000       0.00000000       0.00000000       0.00000000       0.00000000       0.92377126
Ac       0.00000000       0.00000000       4.64787879       0.00000000       0.00000000      -0.92377126
2
Properties=species:S:1:pos:R:3:forces:R:3 energy=-1.9511914627147655 pbc="F F F"
Ac       0.00000000       0.00000000       0.00000000       0.00000000       0.00000000       0.90947074
Ac       0.00000000       0.00000000       4.70666667       0.00000000       0.00000000      -0.90947074
2
Properties=species:S:1:pos:R:3:forces:R:3 energy=-1.898069256147608 pbc="F F F"
Ac       0.00000000       0.00000000       0.00000000       0.00000000       0.00000000       0.89859700
Ac       0.00000000       0.00000000       4.76545455       0.00000000       0.00000000      -0.89859700
2
Properties=species:S:1:pos:R:3:forces:R:3 energy=-1.8454367060234858 pbc="F F F"
Ac       0.00000000       0.00000000       0.00000000       0.00000000       0.00000000       0.89281875
Ac       0.00000000       0.00000000       4.82424242       0.00000000       0.00000000      -0.89281875
2
Properties=species:S:1:pos:R:3:forces:R:3 energy=-1.7930113485146537 pbc="F F F"
Ac       0.00000000       0.00000000       0.00000000       0.00000000       0.00000000       0.89137816
Ac       0.00000000       0.00000000       4.88303030       0.00000000       0.00000000      -0.89137816
2
Properties=species:S:1:pos:R:3:forces:R:3 energy=-1.7406137823118868 pbc="F F F"
Ac       0.00000000       0.00000000       0.00000000       0.00000000       0.00000000       0.89086556
Ac       0.00000000       0.00000000       4.94181818       0.00000000       0.00000000      -0.89086556
2
Properties=species:S:1:pos:R:3:forces:R:3 energy=-1.6883324677157436 pbc="F F F"
Ac       0.00000000       0.00000000       0.00000000       0.00000000       0.00000000       0.88688111
Ac       0.00000000       0.00000000       5.00060606       0.00000000       0.00000000      -0.88688111
2
Properties=species:S:1:pos:R:3:forces:R:3 energy=-1.6364190292021215 pbc="F F F"
Ac       0.00000000       0.00000000       0.00000000       0.00000000       0.00000000       0.87907386
Ac       0.00000000       0.00000000       5.05939394       0.00000000       0.00000000      -0.87907386
2
Properties=species:S:1:pos:R:3:forces:R:3 energy=-1.5848441881473887 pbc="F F F"
Ac       0.00000000       0.00000000       0.00000000       0.00000000       0.00000000       0.87840313
Ac       0.00000000       0.00000000       5.11818182       0.00000000       0.00000000      -0.87840313
2
Properties=species:S:1:pos:R:3:forces:R:3 energy=-1.5325502457231241 pbc="F F F"
Ac       0.00000000       0.00000000       0.00000000       0.00000000       0.00000000       0.90786749
Ac       0.00000000       0.00000000       5.17696970       0.00000000       0.00000000      -0.90786749
2
Properties=species:S:1:pos:R:3:forces:R:3 energy=-1.4771795051275853 pbc="F F F"
Ac       0.00000000       0.00000000       0.00000000       0.00000000       0.00000000       0.98319846
Ac       0.00000000       0.00000000       5.23575758       0.00000000       0.00000000      -0.98319846
2
Properties=species:S:1:pos:R:3:forces:R:3 energy=-1.4164856030359911 pbc="F F F"
Ac       0.00000000       0.00000000       0.00000000       0.00000000       0.00000000       1.08083999
Ac       0.00000000       0.00000000       5.29454545       0.00000000       0.00000000      -1.08083999
2
Properties=species:S:1:pos:R:3:forces:R:3 energy=-1.3508927072998844 pbc="F F F"
Ac       0.00000000       0.00000000       0.00000000       0.00000000       0.00000000       1.13848686
Ac       0.00000000       0.00000000       5.35333333       0.00000000       0.00000000      -1.13848686
2
Properties=species:S:1:pos:R:3:forces:R:3 energy=-1.284285170784454 pbc="F F F"
Ac       0.00000000       0.00000000       0.00000000       0.00000000       0.00000000       1.11420095
Ac       0.00000000       0.00000000       5.41212121       0.00000000       0.00000000      -1.11420095
2
Properties=species:S:1:pos:R:3:forces:R:3 energy=-1.2207512801072529 pbc="F F F"
Ac       0.00000000       0.00000000       0.00000000       0.00000000       0.00000000       1.04870129
Ac       0.00000000       0.00000000       5.47090909       0.00000000       0.00000000      -1.04870129
2
Properties=species:S:1:pos:R:3:forces:R:3 energy=-1.1595099645324767 pbc="F F F"
Ac       0.00000000       0.00000000       0.00000000       0.00000000       0.00000000       1.05815494
Ac       0.00000000       0.00000000       5.52969697       0.00000000       0.00000000      -1.05815494
2
Properties=species:S:1:pos:R:3:forces:R:3 energy=-1.0926914259422416 pbc="F F F"
Ac       0.00000000       0.00000000       0.00000000       0.00000000       0.00000000       1.24908650
Ac       0.00000000       0.00000000       5.58848485       0.00000000       0.00000000      -1.24908650
2
Properties=species:S:1:pos:R:3:forces:R:3 energy=-1.0094572350469055 pbc="F F F"
Ac       0.00000000       0.00000000       0.00000000       0.00000000       0.00000000       1.59593320
Ac       0.00000000       0.00000000       5.64727273       0.00000000       0.00000000      -1.59593320
2
Properties=species:S:1:pos:R:3:forces:R:3 energy=-0.9061584100372961 pbc="F F F"
Ac       0.00000000       0.00000000       0.00000000       0.00000000       0.00000000       1.88589299
Ac       0.00000000       0.00000000       5.70606061       0.00000000       0.00000000      -1.88589299
2
Properties=species:S:1:pos:R:3:forces:R:3 energy=-0.794026784691394 pbc="F F F"
Ac       0.00000000       0.00000000       0.00000000       0.00000000       0.00000000       1.85181332
Ac       0.00000000       0.00000000       5.76484848       0.00000000       0.00000000      -1.85181332
2
Properties=species:S:1:pos:R:3:forces:R:3 energy=-0.6965524826157922 pbc="F F F"
Ac       0.00000000       0.00000000       0.00000000       0.00000000       0.00000000       1.41187549
Ac       0.00000000       0.00000000       5.82363636       0.00000000       0.00000000      -1.41187549
2
Properties=species:S:1:pos:R:3:forces:R:3 energy=-0.6323838344160257 pbc="F F F"
Ac       0.00000000       0.00000000       0.00000000       0.00000000       0.00000000       0.76908296
Ac       0.00000000       0.00000000       5.88242424       0.00000000       0.00000000      -0.76908296
2
Properties=species:S:1:pos:R:3:forces:R:3 energy=-0.6038725112982332 pbc="F F F"
Ac       0.00000000       0.00000000       0.00000000       0.00000000       0.00000000       0.23752382
Ac       0.00000000       0.00000000       5.94121212       0.00000000       0.00000000      -0.23752382
2
Properties=species:S:1:pos:R:3:forces:R:3 energy=-0.5978550879299225 pbc="F F F"
Ac       0.00000000       0.00000000       0.00000000       0.00000000       0.00000000       0.03497398
Ac       0.00000000       0.00000000       6.00000000       0.00000000       0.00000000      -0.03497398
