2
Properties=species:S:1:pos:R:3:forces:R:3 energy=7934.322818336147 pbc="F F F"
Ag       0.00000000       0.00000000       0.00000000       0.00000000       0.00000000 -131494.51562500
Ag       0.00000000       0.00000000       0.18000000       0.00000000       0.00000000  131494.51562500
2
Properties=species:S:1:pos:R:3:forces:R:3 energy=3252.686099586147 pbc="F F F"
Ag       0.00000000       0.00000000       0.00000000       0.00000000       0.00000000  -45490.49609375
Ag       0.00000000       0.00000000       0.23878788       0.00000000       0.00000000   45490.49609375
2
Properties=species:S:1:pos:R:3:forces:R:3 energy=1505.5285068127096 pbc="F F F"
Ag       0.00000000       0.00000000       0.00000000       0.00000000       0.00000000  -18547.05859375
Ag       0.00000000       0.00000000       0.29757576       0.00000000       0.00000000   18547.05859375
2
Properties=species:S:1:pos:R:3:forces:R:3 energy=758.5266147260336 pbc="F F F"
Ag       0.00000000       0.00000000       0.00000000       0.00000000       0.00000000   -8373.73046875
Ag       0.00000000       0.00000000       0.35636364       0.00000000       0.00000000    8373.73046875
2
Properties=species:S:1:pos:R:3:forces:R:3 energy=410.1958041854943 pbc="F F F"
Ag       0.00000000       0.00000000       0.00000000       0.00000000       0.00000000   -4052.93969727
Ag       0.00000000       0.00000000       0.41515152       0.00000000       0.00000000    4052.93969727
2
Properties=species:S:1:pos:R:3:forces:R:3 energy=237.47262915250528 pbc="F F F"
Ag       0.00000000       0.00000000       0.00000000       0.00000000       0.00000000   -2066.99487305
Ag       0.00000000       0.00000000       0.47393939       0.00000000       0.00000000    2066.99487305
2
Properties=species:S:1:pos:R:3:forces:R:3 energy=147.67135964976566 pbc="F F F"
Ag       0.00000000       0.00000000       0.00000000       0.00000000       0.00000000   -1098.70275879
Ag       0.00000000       0.00000000       0.53272727       0.00000000       0.00000000    1098.70275879
2
Properties=species:S:1:pos:R:3:forces:R:3 energy=99.21707502931426 pbc="F F F"
Ag       0.00000000       0.00000000       0.00000000       0.00000000       0.00000000    -602.66802979
Ag       0.00000000       0.00000000       0.59151515       0.00000000       0.00000000     602.66802979
2
Properties=species:S:1:pos:R:3:forces:R:3 energy=72.37204337339638 pbc="F F F"
Ag       0.00000000       0.00000000       0.00000000       0.00000000       0.00000000    -337.18280029
Ag       0.00000000       0.00000000       0.65030303       0.00000000       0.00000000     337.18280029
2
Properties=species:S:1:pos:R:3:forces:R:3 energy=57.293952832384655 pbc="F F F"
Ag       0.00000000       0.00000000       0.00000000       0.00000000       0.00000000    -189.75326538
Ag       0.00000000       0.00000000       0.70909091       0.00000000       0.00000000     189.75326538
2
Properties=species:S:1:pos:R:3:forces:R:3 energy=48.83823784934627 pbc="F F F"
Ag       0.00000000       0.00000000       0.00000000       0.00000000       0.00000000    -105.60375214
Ag       0.00000000       0.00000000       0.76787879       0.00000000       0.00000000     105.60375214
2
Properties=species:S:1:pos:R:3:forces:R:3 energy=44.18602790202238 pbc="F F F"
Ag       0.00000000       0.00000000       0.00000000       0.00000000       0.00000000     -57.16981506
Ag       0.00000000       0.00000000       0.82666667       0.00000000       0.00000000      57.16981506
2
Properties=species:S:1:pos:R:3:forces:R:3 energy=41.696049520388236 pbc="F F F"
Ag       0.00000000       0.00000000       0.00000000       0.00000000       0.00000000     -30.39744186
Ag       0.00000000       0.00000000       0.88545455       0.00000000       0.00000000      30.39744186
2
Properties=species:S:1:pos:R:3:forces:R:3 energy=40.335652758064676 pbc="F F F"
Ag       0.00000000       0.00000000       0.00000000       0.00000000       0.00000000     -17.81480026
Ag       0.00000000       0.00000000       0.94424242       0.00000000       0.00000000      17.81480026
2
Properties=species:S:1:pos:R:3:forces:R:3 energy=39.41502595602607 pbc="F F F"
Ag       0.00000000       0.00000000       0.00000000       0.00000000       0.00000000     -14.76280308
Ag       0.00000000       0.00000000       1.00303030       0.00000000       0.00000000      14.76280308
2
Properties=species:S:1:pos:R:3:forces:R:3 energy=38.49239671985919 pbc="F F F"
Ag       0.00000000       0.00000000       0.00000000       0.00000000       0.00000000     -17.17589760
Ag       0.00000000       0.00000000       1.06181818       0.00000000       0.00000000      17.17589760
2
Properties=species:S:1:pos:R:3:forces:R:3 energy=37.36787116467227 pbc="F F F"
Ag       0.00000000       0.00000000       0.00000000       0.00000000       0.00000000     -21.14397049
Ag       0.00000000       0.00000000       1.12060606       0.00000000       0.00000000      21.14397049
2
Properties=species:S:1:pos:R:3:forces:R:3 energy=35.98078806641419 pbc="F F F"
Ag       0.00000000       0.00000000       0.00000000       0.00000000       0.00000000     -26.58162689
Ag       0.00000000       0.00000000       1.17939394       0.00000000       0.00000000      26.58162689
2
Properties=species:S:1:pos:R:3:forces:R:3 energy=34.15003714754301 pbc="F F F"
Ag       0.00000000       0.00000000       0.00000000       0.00000000       0.00000000     -36.51781464
Ag       0.00000000       0.00000000       1.23818182       0.00000000       0.00000000      36.51781464
2
Properties=species:S:1:pos:R:3:forces:R:3 energy=31.62426431724231 pbc="F F F"
Ag       0.00000000       0.00000000       0.00000000       0.00000000       0.00000000     -49.55329514
Ag       0.00000000       0.00000000       1.29696970       0.00000000       0.00000000      49.55329514
2
Properties=species:S:1:pos:R:3:forces:R:3 energy=28.363623300943825 pbc="F F F"
Ag       0.00000000       0.00000000       0.00000000       0.00000000       0.00000000     -60.54232788
Ag       0.00000000       0.00000000       1.35575758       0.00000000       0.00000000      60.54232788
2
Properties=species:S:1:pos:R:3:forces:R:3 energy=24.643344671089153 pbc="F F F"
Ag       0.00000000       0.00000000       0.00000000       0.00000000       0.00000000     -64.73812866
Ag       0.00000000       0.00000000       1.41454545       0.00000000       0.00000000      64.73812866
2
Properties=species:S:1:pos:R:3:forces:R:3 energy=20.880991111992294 pbc="F F F"
Ag       0.00000000       0.00000000       0.00000000       0.00000000       0.00000000     -62.45781708
Ag       0.00000000       0.00000000       1.47333333       0.00000000       0.00000000      62.45781708
2
Properties=species:S:1:pos:R:3:forces:R:3 energy=17.35900494146414 pbc="F F F"
Ag       0.00000000       0.00000000       0.00000000       0.00000000       0.00000000     -57.09666061
Ag       0.00000000       0.00000000       1.53212121       0.00000000       0.00000000      57.09666061
2
Properties=species:S:1:pos:R:3:forces:R:3 energy=14.182381189963017 pbc="F F F"
Ag       0.00000000       0.00000000       0.00000000       0.00000000       0.00000000     -50.94251633
Ag       0.00000000       0.00000000       1.59090909       0.00000000       0.00000000      50.94251633
2
Properties=species:S:1:pos:R:3:forces:R:3 energy=11.367743652273495 pbc="F F F"
Ag       0.00000000       0.00000000       0.00000000       0.00000000       0.00000000     -44.85747528
Ag       0.00000000       0.00000000       1.64969697       0.00000000       0.00000000      44.85747528
2
Properties=species:S:1:pos:R:3:forces:R:3 energy=8.901128955340429 pbc="F F F"
Ag       0.00000000       0.00000000       0.00000000       0.00000000       0.00000000     -39.12724304
Ag       0.00000000       0.00000000       1.70848485       0.00000000       0.00000000      39.12724304
2
Properties=species:S:1:pos:R:3:forces:R:3 energy=6.759150514537782 pbc="F F F"
Ag       0.00000000       0.00000000       0.00000000       0.00000000       0.00000000     -33.81027985
Ag       0.00000000       0.00000000       1.76727273       0.00000000       0.00000000      33.81027985
2
Properties=species:S:1:pos:R:3:forces:R:3 energy=4.918803268819055 pbc="F F F"
Ag       0.00000000       0.00000000       0.00000000       0.00000000       0.00000000     -28.85462761
Ag       0.00000000       0.00000000       1.82606061       0.00000000       0.00000000      28.85462761
2
Properties=species:S:1:pos:R:3:forces:R:3 energy=3.360261967901978 pbc="F F F"
Ag       0.00000000       0.00000000       0.00000000       0.00000000       0.00000000     -24.22255516
Ag       0.00000000       0.00000000       1.88484848       0.00000000       0.00000000      24.22255516
2
Properties=species:S:1:pos:R:3:forces:R:3 energy=2.063881888718175 pbc="F F F"
Ag       0.00000000       0.00000000       0.00000000       0.00000000       0.00000000     -19.94558907
Ag       0.00000000       0.00000000       1.94363636       0.00000000       0.00000000      19.94558907
2
Properties=species:S:1:pos:R:3:forces:R:3 energy=1.0068018443302966 pbc="F F F"
Ag       0.00000000       0.00000000       0.00000000       0.00000000       0.00000000     -16.09351730
Ag       0.00000000       0.00000000       2.00242424       0.00000000       0.00000000      16.09351730
2
Properties=species:S:1:pos:R:3:forces:R:3 energy=0.16228002463042535 pbc="F F F"
Ag       0.00000000       0.00000000       0.00000000       0.00000000       0.00000000     -12.71943474
Ag       0.00000000       0.00000000       2.06121212       0.00000000       0.00000000      12.71943474
2
Properties=species:S:1:pos:R:3:forces:R:3 energy=-0.49825369336319686 pbc="F F F"
Ag       0.00000000       0.00000000       0.00000000       0.00000000       0.00000000      -9.83190250
Ag       0.00000000       0.00000000       2.12000000       0.00000000       0.00000000       9.83190250
2
Properties=species:S:1:pos:R:3:forces:R:3 energy=-1.002755065967849 pbc="F F F"
Ag       0.00000000       0.00000000       0.00000000       0.00000000       0.00000000      -7.40522337
Ag       0.00000000       0.00000000       2.17878788       0.00000000       0.00000000       7.40522337
2
Properties=species:S:1:pos:R:3:forces:R:3 energy=-1.3772118225076981 pbc="F F F"
Ag       0.00000000       0.00000000       0.00000000       0.00000000       0.00000000      -5.40116024
Ag       0.00000000       0.00000000       2.23757576       0.00000000       0.00000000       5.40116024
2
Properties=species:S:1:pos:R:3:forces:R:3 energy=-1.6452858600471068 pbc="F F F"
Ag       0.00000000       0.00000000       0.00000000       0.00000000       0.00000000      -3.77911043
Ag       0.00000000       0.00000000       2.29636364       0.00000000       0.00000000       3.77911043
2
Properties=species:S:1:pos:R:3:forces:R:3 energy=-1.8281911175613208 pbc="F F F"
Ag       0.00000000       0.00000000       0.00000000       0.00000000       0.00000000      -2.49626517
Ag       0.00000000       0.00000000       2.35515152       0.00000000       0.00000000       2.49626517
2
Properties=species:S:1:pos:R:3:forces:R:3 energy=-1.944527637773366 pbc="F F F"
Ag       0.00000000       0.00000000       0.00000000       0.00000000       0.00000000      -1.50637269
Ag       0.00000000       0.00000000       2.41393939       0.00000000       0.00000000       1.50637269
2
Properties=species:S:1:pos:R:3:forces:R:3 energy=-2.0101005562714724 pbc="F F F"
Ag       0.00000000       0.00000000       0.00000000       0.00000000       0.00000000      -0.76126772
Ag       0.00000000       0.00000000       2.47272727       0.00000000       0.00000000       0.76126772
2
Properties=species:S:1:pos:R:3:forces:R:3 energy=-2.0379111139670942 pbc="F F F"
Ag       0.00000000       0.00000000       0.00000000       0.00000000       0.00000000      -0.21416709
Ag       0.00000000       0.00000000       2.53151515       0.00000000       0.00000000       0.21416709
2
Properties=species:S:1:pos:R:3:forces:R:3 energy=-2.0383350367179 pbc="F F F"
Ag       0.00000000       0.00000000       0.00000000       0.00000000       0.00000000       0.17691725
Ag       0.00000000       0.00000000       2.59030303       0.00000000       0.00000000      -0.17691725
2
Properties=species:S:1:pos:R:3:forces:R:3 energy=-2.0194681090754263 pbc="F F F"
Ag       0.00000000       0.00000000       0.00000000       0.00000000       0.00000000       0.44743374
Ag       0.00000000       0.00000000       2.64909091       0.00000000       0.00000000      -0.44743374
2
Properties=species:S:1:pos:R:3:forces:R:3 energy=-1.987516308980648 pbc="F F F"
Ag       0.00000000       0.00000000       0.00000000       0.00000000       0.00000000       0.62648106
Ag       0.00000000       0.00000000       2.70787879       0.00000000       0.00000000      -0.62648106
2
Properties=species:S:1:pos:R:3:forces:R:3 energy=-1.947129820099566 pbc="F F F"
Ag       0.00000000       0.00000000       0.00000000       0.00000000       0.00000000       0.73796576
Ag       0.00000000       0.00000000       2.76666667       0.00000000       0.00000000      -0.73796576
2
Properties=species:S:1:pos:R:3:forces:R:3 energy=-1.901687884799075 pbc="F F F"
Ag       0.00000000       0.00000000       0.00000000       0.00000000       0.00000000       0.80140960
Ag       0.00000000       0.00000000       2.82545455       0.00000000       0.00000000      -0.80140960
2
Properties=species:S:1:pos:R:3:forces:R:3 energy=-1.8535444376352737 pbc="F F F"
Ag       0.00000000       0.00000000       0.00000000       0.00000000       0.00000000       0.83204073
Ag       0.00000000       0.00000000       2.88424242       0.00000000       0.00000000      -0.83204073
2
Properties=species:S:1:pos:R:3:forces:R:3 energy=-1.8042798201922157 pbc="F F F"
Ag       0.00000000       0.00000000       0.00000000       0.00000000       0.00000000       0.84118235
Ag       0.00000000       0.00000000       2.94303030       0.00000000       0.00000000      -0.84118235
2
Properties=species:S:1:pos:R:3:forces:R:3 energy=-1.7548741233741654 pbc="F F F"
Ag       0.00000000       0.00000000       0.00000000       0.00000000       0.00000000       0.83850610
Ag       0.00000000       0.00000000       3.00181818       0.00000000       0.00000000      -0.83850610
2
Properties=species:S:1:pos:R:3:forces:R:3 energy=-1.7057211023310668 pbc="F F F"
Ag       0.00000000       0.00000000       0.00000000       0.00000000       0.00000000       0.83424062
Ag       0.00000000       0.00000000       3.06060606       0.00000000       0.00000000      -0.83424062
2
Properties=species:S:1:pos:R:3:forces:R:3 energy=-1.6566812202193253 pbc="F F F"
Ag       0.00000000       0.00000000       0.00000000       0.00000000       0.00000000       0.83503342
Ag       0.00000000       0.00000000       3.11939394       0.00000000       0.00000000      -0.83503342
2
Properties=species:S:1:pos:R:3:forces:R:3 energy=-1.6074943991405628 pbc="F F F"
Ag       0.00000000       0.00000000       0.00000000       0.00000000       0.00000000       0.83808327
Ag       0.00000000       0.00000000       3.17818182       0.00000000       0.00000000      -0.83808327
2
Properties=species:S:1:pos:R:3:forces:R:3 energy=-1.5582450023186096 pbc="F F F"
Ag       0.00000000       0.00000000       0.00000000       0.00000000       0.00000000       0.83607537
Ag       0.00000000       0.00000000       3.23696970       0.00000000       0.00000000      -0.83607537
2
Properties=species:S:1:pos:R:3:forces:R:3 energy=-1.5093732351894231 pbc="F F F"
Ag       0.00000000       0.00000000       0.00000000       0.00000000       0.00000000       0.82498550
Ag       0.00000000       0.00000000       3.29575758       0.00000000       0.00000000      -0.82498550
2
Properties=species:S:1:pos:R:3:forces:R:3 energy=-1.461423374661712 pbc="F F F"
Ag       0.00000000       0.00000000       0.00000000       0.00000000       0.00000000       0.80494899
Ag       0.00000000       0.00000000       3.35454545       0.00000000       0.00000000      -0.80494899
2
Properties=species:S:1:pos:R:3:forces:R:3 energy=-1.4148656984155696 pbc="F F F"
Ag       0.00000000       0.00000000       0.00000000       0.00000000       0.00000000       0.77801144
Ag       0.00000000       0.00000000       3.41333333       0.00000000       0.00000000      -0.77801144
2
Properties=species:S:1:pos:R:3:forces:R:3 energy=-1.3700353691213683 pbc="F F F"
Ag       0.00000000       0.00000000       0.00000000       0.00000000       0.00000000       0.74657303
Ag       0.00000000       0.00000000       3.47212121       0.00000000       0.00000000      -0.74657303
2
Properties=species:S:1:pos:R:3:forces:R:3 energy=-1.3271340822521642 pbc="F F F"
Ag       0.00000000       0.00000000       0.00000000       0.00000000       0.00000000       0.71271259
Ag       0.00000000       0.00000000       3.53090909       0.00000000       0.00000000      -0.71271259
2
Properties=species:S:1:pos:R:3:forces:R:3 energy=-1.2862558270677662 pbc="F F F"
Ag       0.00000000       0.00000000       0.00000000       0.00000000       0.00000000       0.67791831
Ag       0.00000000       0.00000000       3.58969697       0.00000000       0.00000000      -0.67791831
2
Properties=species:S:1:pos:R:3:forces:R:3 energy=-1.2474282744946363 pbc="F F F"
Ag       0.00000000       0.00000000       0.00000000       0.00000000       0.00000000       0.64303035
Ag       0.00000000       0.00000000       3.64848485       0.00000000       0.00000000      -0.64303035
2
Properties=species:S:1:pos:R:3:forces:R:3 energy=-1.2106473545405418 pbc="F F F"
Ag       0.00000000       0.00000000       0.00000000       0.00000000       0.00000000       0.60833508
Ag       0.00000000       0.00000000       3.70727273       0.00000000       0.00000000      -0.60833508
2
Properties=species:S:1:pos:R:3:forces:R:3 energy=-1.1759004047681167 pbc="F F F"
Ag       0.00000000       0.00000000       0.00000000       0.00000000       0.00000000       0.57376814
Ag       0.00000000       0.00000000       3.76606061       0.00000000       0.00000000      -0.57376814
2
Properties=species:S:1:pos:R:3:forces:R:3 energy=-1.1431869118956606 pbc="F F F"
Ag       0.00000000       0.00000000       0.00000000       0.00000000       0.00000000       0.53915071
Ag       0.00000000       0.00000000       3.82484848       0.00000000       0.00000000      -0.53915071
2
Properties=species:S:1:pos:R:3:forces:R:3 energy=-1.1125125209985753 pbc="F F F"
Ag       0.00000000       0.00000000       0.00000000       0.00000000       0.00000000       0.50437683
Ag       0.00000000       0.00000000       3.88363636       0.00000000       0.00000000      -0.50437683
2
Properties=species:S:1:pos:R:3:forces:R:3 energy=-1.0838856773145233 pbc="F F F"
Ag       0.00000000       0.00000000       0.00000000       0.00000000       0.00000000       0.46954095
Ag       0.00000000       0.00000000       3.94242424       0.00000000       0.00000000      -0.46954095
2
Properties=species:S:1:pos:R:3:forces:R:3 energy=-1.0573009542859866 pbc="F F F"
Ag       0.00000000       0.00000000       0.00000000       0.00000000       0.00000000       0.43497634
Ag       0.00000000       0.00000000       4.00121212       0.00000000       0.00000000      -0.43497634
2
Properties=species:S:1:pos:R:3:forces:R:3 energy=-1.03272728902255 pbc="F F F"
Ag       0.00000000       0.00000000       0.00000000       0.00000000       0.00000000       0.40122408
Ag       0.00000000       0.00000000       4.06000000       0.00000000       0.00000000      -0.40122408
2
Properties=species:S:1:pos:R:3:forces:R:3 energy=-1.0100974233592845 pbc="F F F"
Ag       0.00000000       0.00000000       0.00000000       0.00000000       0.00000000       0.36896530
Ag       0.00000000       0.00000000       4.11878788       0.00000000       0.00000000      -0.36896530
2
Properties=species:S:1:pos:R:3:forces:R:3 energy=-0.9893023528732457 pbc="F F F"
Ag       0.00000000       0.00000000       0.00000000       0.00000000       0.00000000       0.33891469
Ag       0.00000000       0.00000000       4.17757576       0.00000000       0.00000000      -0.33891469
2
Properties=species:S:1:pos:R:3:forces:R:3 energy=-0.970193084176513 pbc="F F F"
Ag       0.00000000       0.00000000       0.00000000       0.00000000       0.00000000       0.31171310
Ag       0.00000000       0.00000000       4.23636364       0.00000000       0.00000000      -0.31171310
2
Properties=species:S:1:pos:R:3:forces:R:3 energy=-0.9525870169489546 pbc="F F F"
Ag       0.00000000       0.00000000       0.00000000       0.00000000       0.00000000       0.28782573
Ag       0.00000000       0.00000000       4.29515152       0.00000000       0.00000000      -0.28782573
2
Properties=species:S:1:pos:R:3:forces:R:3 energy=-0.9362825211496454 pbc="F F F"
Ag       0.00000000       0.00000000       0.00000000       0.00000000       0.00000000       0.26747778
Ag       0.00000000       0.00000000       4.35393939       0.00000000       0.00000000      -0.26747778
2
Properties=species:S:1:pos:R:3:forces:R:3 energy=-0.9210700649104234 pbc="F F F"
Ag       0.00000000       0.00000000       0.00000000       0.00000000       0.00000000       0.25061601
Ag       0.00000000       0.00000000       4.41272727       0.00000000       0.00000000      -0.25061601
2
Properties=species:S:1:pos:R:3:forces:R:3 energy=-0.9067533272514305 pbc="F F F"
Ag       0.00000000       0.00000000       0.00000000       0.00000000       0.00000000       0.23694055
Ag       0.00000000       0.00000000       4.47151515       0.00000000       0.00000000      -0.23694055
2
Properties=species:S:1:pos:R:3:forces:R:3 energy=-0.8931584013710318 pbc="F F F"
Ag       0.00000000       0.00000000       0.00000000       0.00000000       0.00000000       0.22596662
Ag       0.00000000       0.00000000       4.53030303       0.00000000       0.00000000      -0.22596662
2
Properties=species:S:1:pos:R:3:forces:R:3 energy=-0.8801437722121427 pbc="F F F"
Ag       0.00000000       0.00000000       0.00000000       0.00000000       0.00000000       0.21711016
Ag       0.00000000       0.00000000       4.58909091       0.00000000       0.00000000      -0.21711016
2
Properties=species:S:1:pos:R:3:forces:R:3 energy=-0.8676017184633039 pbc="F F F"
Ag       0.00000000       0.00000000       0.00000000       0.00000000       0.00000000       0.20978983
Ag       0.00000000       0.00000000       4.64787879       0.00000000       0.00000000      -0.20978983
2
Properties=species:S:1:pos:R:3:forces:R:3 energy=-0.855457452751078 pbc="F F F"
Ag       0.00000000       0.00000000       0.00000000       0.00000000       0.00000000       0.20348006
Ag       0.00000000       0.00000000       4.70666667       0.00000000       0.00000000      -0.20348006
2
Properties=species:S:1:pos:R:3:forces:R:3 energy=-0.8436659867685006 pbc="F F F"
Ag       0.00000000       0.00000000       0.00000000       0.00000000       0.00000000       0.19774741
Ag       0.00000000       0.00000000       4.76545455       0.00000000       0.00000000      -0.19774741
2
Properties=species:S:1:pos:R:3:forces:R:3 energy=-0.8322033604728085 pbc="F F F"
Ag       0.00000000       0.00000000       0.00000000       0.00000000       0.00000000       0.19221359
Ag       0.00000000       0.00000000       4.82424242       0.00000000       0.00000000      -0.19221359
2
Properties=species:S:1:pos:R:3:forces:R:3 energy=-0.8210702684653045 pbc="F F F"
Ag       0.00000000       0.00000000       0.00000000       0.00000000       0.00000000       0.18650728
Ag       0.00000000       0.00000000       4.88303030       0.00000000       0.00000000      -0.18650728
2
Properties=species:S:1:pos:R:3:forces:R:3 energy=-0.8102861854740366 pbc="F F F"
Ag       0.00000000       0.00000000       0.00000000       0.00000000       0.00000000       0.18021394
Ag       0.00000000       0.00000000       4.94181818       0.00000000       0.00000000      -0.18021394
2
Properties=species:S:1:pos:R:3:forces:R:3 energy=-0.7999001211164112 pbc="F F F"
Ag       0.00000000       0.00000000       0.00000000       0.00000000       0.00000000       0.17291871
Ag       0.00000000       0.00000000       5.00060606       0.00000000       0.00000000      -0.17291871
2
Properties=species:S:1:pos:R:3:forces:R:3 energy=-0.789978043903121 pbc="F F F"
Ag       0.00000000       0.00000000       0.00000000       0.00000000       0.00000000       0.16445765
Ag       0.00000000       0.00000000       5.05939394       0.00000000       0.00000000      -0.16445765
2
Properties=species:S:1:pos:R:3:forces:R:3 energy=-0.7805746787377003 pbc="F F F"
Ag       0.00000000       0.00000000       0.00000000       0.00000000       0.00000000       0.15549093
Ag       0.00000000       0.00000000       5.11818182       0.00000000       0.00000000      -0.15549093
2
Properties=species:S:1:pos:R:3:forces:R:3 energy=-0.7716673590160886 pbc="F F F"
Ag       0.00000000       0.00000000       0.00000000       0.00000000       0.00000000       0.14804965
Ag       0.00000000       0.00000000       5.17696970       0.00000000       0.00000000      -0.14804965
2
Properties=species:S:1:pos:R:3:forces:R:3 energy=-0.7630865002683757 pbc="F F F"
Ag       0.00000000       0.00000000       0.00000000       0.00000000       0.00000000       0.14470802
Ag       0.00000000       0.00000000       5.23575758       0.00000000       0.00000000      -0.14470802
2
Properties=species:S:1:pos:R:3:forces:R:3 energy=-0.7545717445663571 pbc="F F F"
Ag       0.00000000       0.00000000       0.00000000       0.00000000       0.00000000       0.14535479
Ag       0.00000000       0.00000000       5.29454545       0.00000000       0.00000000      -0.14535479
2
Properties=species:S:1:pos:R:3:forces:R:3 energy=-0.7460157916219746 pbc="F F F"
Ag       0.00000000       0.00000000       0.00000000       0.00000000       0.00000000       0.14494829
Ag       0.00000000       0.00000000       5.35333333       0.00000000       0.00000000      -0.14494829
2
Properties=species:S:1:pos:R:3:forces:R:3 energy=-0.7376637763240892 pbc="F F F"
Ag       0.00000000       0.00000000       0.00000000       0.00000000       0.00000000       0.13788049
Ag       0.00000000       0.00000000       5.41212121       0.00000000       0.00000000      -0.13788049
2
Properties=species:S:1:pos:R:3:forces:R:3 energy=-0.7299233219908471 pbc="F F F"
Ag       0.00000000       0.00000000       0.00000000       0.00000000       0.00000000       0.12497517
Ag       0.00000000       0.00000000       5.47090909       0.00000000       0.00000000      -0.12497517
2
Properties=species:S:1:pos:R:3:forces:R:3 energy=-0.7229416937242856 pbc="F F F"
Ag       0.00000000       0.00000000       0.00000000       0.00000000       0.00000000       0.11349371
Ag       0.00000000       0.00000000       5.52969697       0.00000000       0.00000000      -0.11349371
2
Properties=species:S:1:pos:R:3:forces:R:3 energy=-0.7164090355583748 pbc="F F F"
Ag       0.00000000       0.00000000       0.00000000       0.00000000       0.00000000       0.11038695
Ag       0.00000000       0.00000000       5.58848485       0.00000000       0.00000000      -0.11038695
2
Properties=species:S:1:pos:R:3:forces:R:3 energy=-0.7098210993976722 pbc="F F F"
Ag       0.00000000       0.00000000       0.00000000       0.00000000       0.00000000       0.11414424
Ag       0.00000000       0.00000000       5.64727273       0.00000000       0.00000000      -0.11414424
2
Properties=species:S:1:pos:R:3:forces:R:3 energy=-0.703077497044914 pbc="F F F"
Ag       0.00000000       0.00000000       0.00000000       0.00000000       0.00000000       0.11353175
Ag       0.00000000       0.00000000       5.70606061       0.00000000       0.00000000      -0.11353175
2
Properties=species:S:1:pos:R:3:forces:R:3 energy=-0.6967532698420085 pbc="F F F"
Ag       0.00000000       0.00000000       0.00000000       0.00000000       0.00000000       0.09855126
Ag       0.00000000       0.00000000       5.76484848       0.00000000       0.00000000      -0.09855126
2
Properties=species:S:1:pos:R:3:forces:R:3 energy=-0.691751378335862 pbc="F F F"
Ag       0.00000000       0.00000000       0.00000000       0.00000000       0.00000000       0.07038134
Ag       0.00000000       0.00000000       5.82363636       0.00000000       0.00000000      -0.07038134
2
Properties=species:S:1:pos:R:3:forces:R:3 energy=-0.6885482356043015 pbc="F F F"
Ag       0.00000000       0.00000000       0.00000000       0.00000000       0.00000000       0.03930216
Ag       0.00000000       0.00000000       5.88242424       0.00000000       0.00000000      -0.03930216
2
Properties=species:S:1:pos:R:3:forces:R:3 energy=-0.6869745415612122 pbc="F F F"
Ag       0.00000000       0.00000000       0.00000000       0.00000000       0.00000000       0.01600185
Ag       0.00000000       0.00000000       5.94121212       0.00000000       0.00000000      -0.01600185
2
Properties=species:S:1:pos:R:3:forces:R:3 energy=-0.6863757449959167 pbc="F F F"
Ag       0.00000000       0.00000000       0.00000000       0.00000000       0.00000000       0.00717060
Ag       0.00000000       0.00000000       6.00000000       0.00000000       0.00000000      -0.00717060
