2
Properties=species:S:1:pos:R:3:forces:R:3 energy=4715.636833636726 pbc="F F F"
Al       0.00000000       0.00000000       0.00000000       0.00000000       0.00000000  -97422.22656250
Al       0.00000000       0.00000000       0.10000000       0.00000000       0.00000000   97422.22656250
2
Properties=species:S:1:pos:R:3:forces:R:3 energy=1642.6085133242264 pbc="F F F"
Al       0.00000000       0.00000000       0.00000000       0.00000000       0.00000000  -25279.66406250
Al       0.00000000       0.00000000       0.15959596       0.00000000       0.00000000   25279.66406250
2
Properties=species:S:1:pos:R:3:forces:R:3 energy=720.1048512148512 pbc="F F F"
Al       0.00000000       0.00000000       0.00000000       0.00000000       0.00000000   -9011.66699219
Al       0.00000000       0.00000000       0.21919192       0.00000000       0.00000000    9011.66699219
2
Properties=species:S:1:pos:R:3:forces:R:3 energy=362.5202259707106 pbc="F F F"
Al       0.00000000       0.00000000       0.00000000       0.00000000       0.00000000   -3854.90454102
Al       0.00000000       0.00000000       0.27878788       0.00000000       0.00000000    3854.90454102
2
Properties=species:S:1:pos:R:3:forces:R:3 energy=200.68938491259314 pbc="F F F"
Al       0.00000000       0.00000000       0.00000000       0.00000000       0.00000000   -1860.88708496
Al       0.00000000       0.00000000       0.33838384       0.00000000       0.00000000    1860.88708496
2
Properties=species:S:1:pos:R:3:forces:R:3 energy=119.41050766062801 pbc="F F F"
Al       0.00000000       0.00000000       0.00000000       0.00000000       0.00000000    -976.99090576
Al       0.00000000       0.00000000       0.39797980       0.00000000       0.00000000     976.99090576
2
Properties=species:S:1:pos:R:3:forces:R:3 energy=75.50512742427586 pbc="F F F"
Al       0.00000000       0.00000000       0.00000000       0.00000000       0.00000000    -544.43408203
Al       0.00000000       0.00000000       0.45757576       0.00000000       0.00000000     544.43408203
2
Properties=species:S:1:pos:R:3:forces:R:3 energy=50.56231358899871 pbc="F F F"
Al       0.00000000       0.00000000       0.00000000       0.00000000       0.00000000    -315.21871948
Al       0.00000000       0.00000000       0.51717172       0.00000000       0.00000000     315.21871948
2
Properties=species:S:1:pos:R:3:forces:R:3 energy=36.00781306618553 pbc="F F F"
Al       0.00000000       0.00000000       0.00000000       0.00000000       0.00000000    -184.79182434
Al       0.00000000       0.00000000       0.57676768       0.00000000       0.00000000     184.79182434
2
Properties=species:S:1:pos:R:3:forces:R:3 energy=27.49876278562185 pbc="F F F"
Al       0.00000000       0.00000000       0.00000000       0.00000000       0.00000000    -107.20982361
Al       0.00000000       0.00000000       0.63636364       0.00000000       0.00000000     107.20982361
2
Properties=species:S:1:pos:R:3:forces:R:3 energy=22.660200925958563 pbc="F F F"
Al       0.00000000       0.00000000       0.00000000       0.00000000       0.00000000     -58.64492416
Al       0.00000000       0.00000000       0.69595960       0.00000000       0.00000000      58.64492416
2
Properties=species:S:1:pos:R:3:forces:R:3 energy=20.18739232248678 pbc="F F F"
Al       0.00000000       0.00000000       0.00000000       0.00000000       0.00000000     -26.52488708
Al       0.00000000       0.00000000       0.75555556       0.00000000       0.00000000      26.52488708
2
Properties=species:S:1:pos:R:3:forces:R:3 energy=19.27210183209204 pbc="F F F"
Al       0.00000000       0.00000000       0.00000000       0.00000000       0.00000000      -5.85320044
Al       0.00000000       0.00000000       0.81515152       0.00000000       0.00000000       5.85320044
2
Properties=species:S:1:pos:R:3:forces:R:3 energy=19.318679792556864 pbc="F F F"
Al       0.00000000       0.00000000       0.00000000       0.00000000       0.00000000       6.16791248
Al       0.00000000       0.00000000       0.87474747       0.00000000       0.00000000      -6.16791248
2
Properties=species:S:1:pos:R:3:forces:R:3 energy=19.867697454663674 pbc="F F F"
Al       0.00000000       0.00000000       0.00000000       0.00000000       0.00000000      11.09406662
Al       0.00000000       0.00000000       0.93434343       0.00000000       0.00000000     -11.09406662
2
Properties=species:S:1:pos:R:3:forces:R:3 energy=20.498250722223013 pbc="F F F"
Al       0.00000000       0.00000000       0.00000000       0.00000000       0.00000000       8.87159061
Al       0.00000000       0.00000000       0.99393939       0.00000000       0.00000000      -8.87159061
2
Properties=species:S:1:pos:R:3:forces:R:3 energy=20.80437579890011 pbc="F F F"
Al       0.00000000       0.00000000       0.00000000       0.00000000       0.00000000       0.73421609
Al       0.00000000       0.00000000       1.05353535       0.00000000       0.00000000      -0.73421609
2
Properties=species:S:1:pos:R:3:forces:R:3 energy=20.560444861552778 pbc="F F F"
Al       0.00000000       0.00000000       0.00000000       0.00000000       0.00000000      -8.78601742
Al       0.00000000       0.00000000       1.11313131       0.00000000       0.00000000       8.78601742
2
Properties=species:S:1:pos:R:3:forces:R:3 energy=19.7686285933024 pbc="F F F"
Al       0.00000000       0.00000000       0.00000000       0.00000000       0.00000000     -18.00095367
Al       0.00000000       0.00000000       1.17272727       0.00000000       0.00000000      18.00095367
2
Properties=species:S:1:pos:R:3:forces:R:3 energy=18.33536787473207 pbc="F F F"
Al       0.00000000       0.00000000       0.00000000       0.00000000       0.00000000     -31.02421188
Al       0.00000000       0.00000000       1.23232323       0.00000000       0.00000000      31.02421188
2
Properties=species:S:1:pos:R:3:forces:R:3 energy=16.013016532445793 pbc="F F F"
Al       0.00000000       0.00000000       0.00000000       0.00000000       0.00000000     -46.42054749
Al       0.00000000       0.00000000       1.29191919       0.00000000       0.00000000      46.42054749
2
Properties=species:S:1:pos:R:3:forces:R:3 energy=13.014572186700684 pbc="F F F"
Al       0.00000000       0.00000000       0.00000000       0.00000000       0.00000000     -51.48454666
Al       0.00000000       0.00000000       1.35151515       0.00000000       0.00000000      51.48454666
2
Properties=species:S:1:pos:R:3:forces:R:3 energy=10.169300672733655 pbc="F F F"
Al       0.00000000       0.00000000       0.00000000       0.00000000       0.00000000     -42.56701660
Al       0.00000000       0.00000000       1.41111111       0.00000000       0.00000000      42.56701660
2
Properties=species:S:1:pos:R:3:forces:R:3 energy=7.97325975434645 pbc="F F F"
Al       0.00000000       0.00000000       0.00000000       0.00000000       0.00000000     -31.57095718
Al       0.00000000       0.00000000       1.47070707       0.00000000       0.00000000      31.57095718
2
Properties=species:S:1:pos:R:3:forces:R:3 energy=6.340628583916599 pbc="F F F"
Al       0.00000000       0.00000000       0.00000000       0.00000000       0.00000000     -23.73142242
Al       0.00000000       0.00000000       1.53030303       0.00000000       0.00000000      23.73142242
2
Properties=species:S:1:pos:R:3:forces:R:3 energy=5.089671975303122 pbc="F F F"
Al       0.00000000       0.00000000       0.00000000       0.00000000       0.00000000     -18.68185043
Al       0.00000000       0.00000000       1.58989899       0.00000000       0.00000000      18.68185043
2
Properties=species:S:1:pos:R:3:forces:R:3 energy=4.0660758096767555 pbc="F F F"
Al       0.00000000       0.00000000       0.00000000       0.00000000       0.00000000     -16.02004623
Al       0.00000000       0.00000000       1.64949495       0.00000000       0.00000000      16.02004623
2
Properties=species:S:1:pos:R:3:forces:R:3 energy=3.1484096503261076 pbc="F F F"
Al       0.00000000       0.00000000       0.00000000       0.00000000       0.00000000     -14.94411945
Al       0.00000000       0.00000000       1.70909091       0.00000000       0.00000000      14.94411945
2
Properties=species:S:1:pos:R:3:forces:R:3 energy=2.276825902279847 pbc="F F F"
Al       0.00000000       0.00000000       0.00000000       0.00000000       0.00000000     -14.28612614
Al       0.00000000       0.00000000       1.76868687       0.00000000       0.00000000      14.28612614
2
Properties=species:S:1:pos:R:3:forces:R:3 energy=1.4542253532088631 pbc="F F F"
Al       0.00000000       0.00000000       0.00000000       0.00000000       0.00000000     -13.22038364
Al       0.00000000       0.00000000       1.82828283       0.00000000       0.00000000      13.22038364
2
Properties=species:S:1:pos:R:3:forces:R:3 energy=0.7123943873994527 pbc="F F F"
Al       0.00000000       0.00000000       0.00000000       0.00000000       0.00000000     -11.59833622
Al       0.00000000       0.00000000       1.88787879       0.00000000       0.00000000      11.59833622
2
Properties=species:S:1:pos:R:3:forces:R:3 energy=0.0775476300156308 pbc="F F F"
Al       0.00000000       0.00000000       0.00000000       0.00000000       0.00000000      -9.68677139
Al       0.00000000       0.00000000       1.94747475       0.00000000       0.00000000       9.68677139
2
Properties=species:S:1:pos:R:3:forces:R:3 energy=-0.44262654094353904 pbc="F F F"
Al       0.00000000       0.00000000       0.00000000       0.00000000       0.00000000      -7.79220581
Al       0.00000000       0.00000000       2.00707071       0.00000000       0.00000000       7.79220581
2
Properties=species:S:1:pos:R:3:forces:R:3 energy=-0.8552228583820702 pbc="F F F"
Al       0.00000000       0.00000000       0.00000000       0.00000000       0.00000000      -6.09536505
Al       0.00000000       0.00000000       2.06666667       0.00000000       0.00000000       6.09536505
2
Properties=species:S:1:pos:R:3:forces:R:3 energy=-1.174453630738242 pbc="F F F"
Al       0.00000000       0.00000000       0.00000000       0.00000000       0.00000000      -4.66387892
Al       0.00000000       0.00000000       2.12626263       0.00000000       0.00000000       4.66387892
2
Properties=species:S:1:pos:R:3:forces:R:3 energy=-1.4165678726295066 pbc="F F F"
Al       0.00000000       0.00000000       0.00000000       0.00000000       0.00000000      -3.50579929
Al       0.00000000       0.00000000       2.18585859       0.00000000       0.00000000       3.50579929
2
Properties=species:S:1:pos:R:3:forces:R:3 energy=-1.5973497199620503 pbc="F F F"
Al       0.00000000       0.00000000       0.00000000       0.00000000       0.00000000      -2.60047555
Al       0.00000000       0.00000000       2.24545455       0.00000000       0.00000000       2.60047555
2
Properties=species:S:1:pos:R:3:forces:R:3 energy=-1.7308010959253335 pbc="F F F"
Al       0.00000000       0.00000000       0.00000000       0.00000000       0.00000000      -1.91002297
Al       0.00000000       0.00000000       2.30505051       0.00000000       0.00000000       1.91002297
2
Properties=species:S:1:pos:R:3:forces:R:3 energy=-1.8283216397790014 pbc="F F F"
Al       0.00000000       0.00000000       0.00000000       0.00000000       0.00000000      -1.38632178
Al       0.00000000       0.00000000       2.36464646       0.00000000       0.00000000       1.38632178
2
Properties=species:S:1:pos:R:3:forces:R:3 energy=-1.8983653029035552 pbc="F F F"
Al       0.00000000       0.00000000       0.00000000       0.00000000       0.00000000      -0.98006999
Al       0.00000000       0.00000000       2.42424242       0.00000000       0.00000000       0.98006999
2
Properties=species:S:1:pos:R:3:forces:R:3 energy=-1.9466437250160167 pbc="F F F"
Al       0.00000000       0.00000000       0.00000000       0.00000000       0.00000000      -0.65005410
Al       0.00000000       0.00000000       2.48383838       0.00000000       0.00000000       0.65005410
2
Properties=species:S:1:pos:R:3:forces:R:3 energy=-1.9768036325341938 pbc="F F F"
Al       0.00000000       0.00000000       0.00000000       0.00000000       0.00000000      -0.36870575
Al       0.00000000       0.00000000       2.54343434       0.00000000       0.00000000       0.36870575
2
Properties=species:S:1:pos:R:3:forces:R:3 energy=-1.9912673781096129 pbc="F F F"
Al       0.00000000       0.00000000       0.00000000       0.00000000       0.00000000      -0.12180600
Al       0.00000000       0.00000000       2.60303030       0.00000000       0.00000000       0.12180600
2
Properties=species:S:1:pos:R:3:forces:R:3 energy=-1.9919048183750339 pbc="F F F"
Al       0.00000000       0.00000000       0.00000000       0.00000000       0.00000000       0.09564077
Al       0.00000000       0.00000000       2.66262626       0.00000000       0.00000000      -0.09564077
2
Properties=species:S:1:pos:R:3:forces:R:3 energy=-1.9804477591920946 pbc="F F F"
Al       0.00000000       0.00000000       0.00000000       0.00000000       0.00000000       0.28387189
Al       0.00000000       0.00000000       2.72222222       0.00000000       0.00000000      -0.28387189
2
Properties=species:S:1:pos:R:3:forces:R:3 energy=-1.95867957157213 pbc="F F F"
Al       0.00000000       0.00000000       0.00000000       0.00000000       0.00000000       0.44137445
Al       0.00000000       0.00000000       2.78181818       0.00000000       0.00000000      -0.44137445
2
Properties=species:S:1:pos:R:3:forces:R:3 energy=-1.9284838875619184 pbc="F F F"
Al       0.00000000       0.00000000       0.00000000       0.00000000       0.00000000       0.56654280
Al       0.00000000       0.00000000       2.84141414       0.00000000       0.00000000      -0.56654280
2
Properties=species:S:1:pos:R:3:forces:R:3 energy=-1.891796885456371 pbc="F F F"
Al       0.00000000       0.00000000       0.00000000       0.00000000       0.00000000       0.65939516
Al       0.00000000       0.00000000       2.90101010       0.00000000       0.00000000      -0.65939516
2
Properties=species:S:1:pos:R:3:forces:R:3 energy=-1.850451083425456 pbc="F F F"
Al       0.00000000       0.00000000       0.00000000       0.00000000       0.00000000       0.72411102
Al       0.00000000       0.00000000       2.96060606       0.00000000       0.00000000      -0.72411102
2
Properties=species:S:1:pos:R:3:forces:R:3 energy=-1.8058740875503636 pbc="F F F"
Al       0.00000000       0.00000000       0.00000000       0.00000000       0.00000000       0.76940274
Al       0.00000000       0.00000000       3.02020202       0.00000000       0.00000000      -0.76940274
2
Properties=species:S:1:pos:R:3:forces:R:3 energy=-1.7589725792480457 pbc="F F F"
Al       0.00000000       0.00000000       0.00000000       0.00000000       0.00000000       0.80298018
Al       0.00000000       0.00000000       3.07979798       0.00000000       0.00000000      -0.80298018
2
Properties=species:S:1:pos:R:3:forces:R:3 energy=-1.710344240759708 pbc="F F F"
Al       0.00000000       0.00000000       0.00000000       0.00000000       0.00000000       0.82751876
Al       0.00000000       0.00000000       3.13939394       0.00000000       0.00000000      -0.82751876
2
Properties=species:S:1:pos:R:3:forces:R:3 energy=-1.660500715719194 pbc="F F F"
Al       0.00000000       0.00000000       0.00000000       0.00000000       0.00000000       0.84398425
Al       0.00000000       0.00000000       3.19898990       0.00000000       0.00000000      -0.84398425
2
Properties=species:S:1:pos:R:3:forces:R:3 energy=-1.6098725755338927 pbc="F F F"
Al       0.00000000       0.00000000       0.00000000       0.00000000       0.00000000       0.85420185
Al       0.00000000       0.00000000       3.25858586       0.00000000       0.00000000      -0.85420185
2
Properties=species:S:1:pos:R:3:forces:R:3 energy=-1.5587736741223672 pbc="F F F"
Al       0.00000000       0.00000000       0.00000000       0.00000000       0.00000000       0.86000049
Al       0.00000000       0.00000000       3.31818182       0.00000000       0.00000000      -0.86000049
2
Properties=species:S:1:pos:R:3:forces:R:3 energy=-1.5074350002396222 pbc="F F F"
Al       0.00000000       0.00000000       0.00000000       0.00000000       0.00000000       0.86234909
Al       0.00000000       0.00000000       3.37777778       0.00000000       0.00000000      -0.86234909
2
Properties=species:S:1:pos:R:3:forces:R:3 energy=-1.4560541019421165 pbc="F F F"
Al       0.00000000       0.00000000       0.00000000       0.00000000       0.00000000       0.86140674
Al       0.00000000       0.00000000       3.43737374       0.00000000       0.00000000      -0.86140674
2
Properties=species:S:1:pos:R:3:forces:R:3 energy=-1.4048334842197405 pbc="F F F"
Al       0.00000000       0.00000000       0.00000000       0.00000000       0.00000000       0.85688758
Al       0.00000000       0.00000000       3.49696970       0.00000000       0.00000000      -0.85688758
2
Properties=species:S:1:pos:R:3:forces:R:3 energy=-1.354000065022043 pbc="F F F"
Al       0.00000000       0.00000000       0.00000000       0.00000000       0.00000000       0.84831929
Al       0.00000000       0.00000000       3.55656566       0.00000000       0.00000000      -0.84831929
2
Properties=species:S:1:pos:R:3:forces:R:3 energy=-1.3038112067916012 pbc="F F F"
Al       0.00000000       0.00000000       0.00000000       0.00000000       0.00000000       0.83519483
Al       0.00000000       0.00000000       3.61616162       0.00000000       0.00000000      -0.83519483
2
Properties=species:S:1:pos:R:3:forces:R:3 energy=-1.2545515225163812 pbc="F F F"
Al       0.00000000       0.00000000       0.00000000       0.00000000       0.00000000       0.81706917
Al       0.00000000       0.00000000       3.67575758       0.00000000       0.00000000      -0.81706917
2
Properties=species:S:1:pos:R:3:forces:R:3 energy=-1.206527907801694 pbc="F F F"
Al       0.00000000       0.00000000       0.00000000       0.00000000       0.00000000       0.79367197
Al       0.00000000       0.00000000       3.73535354       0.00000000       0.00000000      -0.79367197
2
Properties=species:S:1:pos:R:3:forces:R:3 energy=-1.1600563214865278 pbc="F F F"
Al       0.00000000       0.00000000       0.00000000       0.00000000       0.00000000       0.76503533
Al       0.00000000       0.00000000       3.79494949       0.00000000       0.00000000      -0.76503533
2
Properties=species:S:1:pos:R:3:forces:R:3 energy=-1.1154381753726903 pbc="F F F"
Al       0.00000000       0.00000000       0.00000000       0.00000000       0.00000000       0.73157644
Al       0.00000000       0.00000000       3.85454545       0.00000000       0.00000000      -0.73157644
2
Properties=species:S:1:pos:R:3:forces:R:3 energy=-1.0729379877388012 pbc="F F F"
Al       0.00000000       0.00000000       0.00000000       0.00000000       0.00000000       0.69412857
Al       0.00000000       0.00000000       3.91414141       0.00000000       0.00000000      -0.69412857
2
Properties=species:S:1:pos:R:3:forces:R:3 energy=-1.032759264218019 pbc="F F F"
Al       0.00000000       0.00000000       0.00000000       0.00000000       0.00000000       0.65387827
Al       0.00000000       0.00000000       3.97373737       0.00000000       0.00000000      -0.65387827
2
Properties=species:S:1:pos:R:3:forces:R:3 energy=-0.9950287570041285 pbc="F F F"
Al       0.00000000       0.00000000       0.00000000       0.00000000       0.00000000       0.61222529
Al       0.00000000       0.00000000       4.03333333       0.00000000       0.00000000      -0.61222529
2
Properties=species:S:1:pos:R:3:forces:R:3 energy=-0.9597865552253733 pbc="F F F"
Al       0.00000000       0.00000000       0.00000000       0.00000000       0.00000000       0.57060397
Al       0.00000000       0.00000000       4.09292929       0.00000000       0.00000000      -0.57060397
2
Properties=species:S:1:pos:R:3:forces:R:3 energy=-0.926990197664945 pbc="F F F"
Al       0.00000000       0.00000000       0.00000000       0.00000000       0.00000000       0.53031564
Al       0.00000000       0.00000000       4.15252525       0.00000000       0.00000000      -0.53031564
2
Properties=species:S:1:pos:R:3:forces:R:3 energy=-0.8965302131501834 pbc="F F F"
Al       0.00000000       0.00000000       0.00000000       0.00000000       0.00000000       0.49238434
Al       0.00000000       0.00000000       4.21212121       0.00000000       0.00000000      -0.49238434
2
Properties=species:S:1:pos:R:3:forces:R:3 energy=-0.8682418614996449 pbc="F F F"
Al       0.00000000       0.00000000       0.00000000       0.00000000       0.00000000       0.45747593
Al       0.00000000       0.00000000       4.27171717       0.00000000       0.00000000      -0.45747593
2
Properties=species:S:1:pos:R:3:forces:R:3 energy=-0.8419366416214571 pbc="F F F"
Al       0.00000000       0.00000000       0.00000000       0.00000000       0.00000000       0.42588347
Al       0.00000000       0.00000000       4.33131313       0.00000000       0.00000000      -0.42588347
2
Properties=species:S:1:pos:R:3:forces:R:3 energy=-0.817414841582838 pbc="F F F"
Al       0.00000000       0.00000000       0.00000000       0.00000000       0.00000000       0.39757207
Al       0.00000000       0.00000000       4.39090909       0.00000000       0.00000000      -0.39757207
2
Properties=species:S:1:pos:R:3:forces:R:3 energy=-0.7944883876118712 pbc="F F F"
Al       0.00000000       0.00000000       0.00000000       0.00000000       0.00000000       0.37229729
Al       0.00000000       0.00000000       4.45050505       0.00000000       0.00000000      -0.37229729
2
Properties=species:S:1:pos:R:3:forces:R:3 energy=-0.7729864489339856 pbc="F F F"
Al       0.00000000       0.00000000       0.00000000       0.00000000       0.00000000       0.34973145
Al       0.00000000       0.00000000       4.51010101       0.00000000       0.00000000      -0.34973145
2
Properties=species:S:1:pos:R:3:forces:R:3 energy=-0.7527549180011803 pbc="F F F"
Al       0.00000000       0.00000000       0.00000000       0.00000000       0.00000000       0.32960099
Al       0.00000000       0.00000000       4.56969697       0.00000000       0.00000000      -0.32960099
2
Properties=species:S:1:pos:R:3:forces:R:3 energy=-0.7336545880906145 pbc="F F F"
Al       0.00000000       0.00000000       0.00000000       0.00000000       0.00000000       0.31177881
Al       0.00000000       0.00000000       4.62929293       0.00000000       0.00000000      -0.31177881
2
Properties=species:S:1:pos:R:3:forces:R:3 energy=-0.715547112782935 pbc="F F F"
Al       0.00000000       0.00000000       0.00000000       0.00000000       0.00000000       0.29631287
Al       0.00000000       0.00000000       4.68888889       0.00000000       0.00000000      -0.29631287
2
Properties=species:S:1:pos:R:3:forces:R:3 energy=-0.6982870937996566 pbc="F F F"
Al       0.00000000       0.00000000       0.00000000       0.00000000       0.00000000       0.28332615
Al       0.00000000       0.00000000       4.74848485       0.00000000       0.00000000      -0.28332615
2
Properties=species:S:1:pos:R:3:forces:R:3 energy=-0.6817266725606791 pbc="F F F"
Al       0.00000000       0.00000000       0.00000000       0.00000000       0.00000000       0.27285808
Al       0.00000000       0.00000000       4.80808081       0.00000000       0.00000000      -0.27285808
2
Properties=species:S:1:pos:R:3:forces:R:3 energy=-0.6657202021053114 pbc="F F F"
Al       0.00000000       0.00000000       0.00000000       0.00000000       0.00000000       0.26460940
Al       0.00000000       0.00000000       4.86767677       0.00000000       0.00000000      -0.26460940
2
Properties=species:S:1:pos:R:3:forces:R:3 energy=-0.6501594005774238 pbc="F F F"
Al       0.00000000       0.00000000       0.00000000       0.00000000       0.00000000       0.25771484
Al       0.00000000       0.00000000       4.92727273       0.00000000       0.00000000      -0.25771484
2
Properties=species:S:1:pos:R:3:forces:R:3 energy=-0.6350044832729786 pbc="F F F"
Al       0.00000000       0.00000000       0.00000000       0.00000000       0.00000000       0.25070855
Al       0.00000000       0.00000000       4.98686869       0.00000000       0.00000000      -0.25070855
2
Properties=species:S:1:pos:R:3:forces:R:3 energy=-0.6203130124560522 pbc="F F F"
Al       0.00000000       0.00000000       0.00000000       0.00000000       0.00000000       0.24200726
Al       0.00000000       0.00000000       5.04646465       0.00000000       0.00000000      -0.24200726
2
Properties=species:S:1:pos:R:3:forces:R:3 energy=-0.606202229807184 pbc="F F F"
Al       0.00000000       0.00000000       0.00000000       0.00000000       0.00000000       0.23132540
Al       0.00000000       0.00000000       5.10606061       0.00000000       0.00000000      -0.23132540
2
Properties=species:S:1:pos:R:3:forces:R:3 energy=-0.5927189000540716 pbc="F F F"
Al       0.00000000       0.00000000       0.00000000       0.00000000       0.00000000       0.22177634
Al       0.00000000       0.00000000       5.16565657       0.00000000       0.00000000      -0.22177634
2
Properties=species:S:1:pos:R:3:forces:R:3 energy=-0.5796127099512457 pbc="F F F"
Al       0.00000000       0.00000000       0.00000000       0.00000000       0.00000000       0.21991666
Al       0.00000000       0.00000000       5.22525253       0.00000000       0.00000000      -0.21991666
2
Properties=species:S:1:pos:R:3:forces:R:3 energy=-0.5662760865957797 pbc="F F F"
Al       0.00000000       0.00000000       0.00000000       0.00000000       0.00000000       0.22925200
Al       0.00000000       0.00000000       5.28484848       0.00000000       0.00000000      -0.22925200
2
Properties=species:S:1:pos:R:3:forces:R:3 energy=-0.5522310873476329 pbc="F F F"
Al       0.00000000       0.00000000       0.00000000       0.00000000       0.00000000       0.24111241
Al       0.00000000       0.00000000       5.34444444       0.00000000       0.00000000      -0.24111241
2
Properties=species:S:1:pos:R:3:forces:R:3 energy=-0.5378090931848034 pbc="F F F"
Al       0.00000000       0.00000000       0.00000000       0.00000000       0.00000000       0.23974015
Al       0.00000000       0.00000000       5.40404040       0.00000000       0.00000000      -0.23974015
2
Properties=species:S:1:pos:R:3:forces:R:3 energy=-0.5240008008194912 pbc="F F F"
Al       0.00000000       0.00000000       0.00000000       0.00000000       0.00000000       0.22155491
Al       0.00000000       0.00000000       5.46363636       0.00000000       0.00000000      -0.22155491
2
Properties=species:S:1:pos:R:3:forces:R:3 energy=-0.5114495833191646 pbc="F F F"
Al       0.00000000       0.00000000       0.00000000       0.00000000       0.00000000       0.20128316
Al       0.00000000       0.00000000       5.52323232       0.00000000       0.00000000      -0.20128316
2
Properties=species:S:1:pos:R:3:forces:R:3 energy=-0.4996755079076482 pbc="F F F"
Al       0.00000000       0.00000000       0.00000000       0.00000000       0.00000000       0.19739665
Al       0.00000000       0.00000000       5.58282828       0.00000000       0.00000000      -0.19739665
2
Properties=species:S:1:pos:R:3:forces:R:3 energy=-0.48756102699692094 pbc="F F F"
Al       0.00000000       0.00000000       0.00000000       0.00000000       0.00000000       0.21070047
Al       0.00000000       0.00000000       5.64242424       0.00000000       0.00000000      -0.21070047
2
Properties=species:S:1:pos:R:3:forces:R:3 energy=-0.47467671536762923 pbc="F F F"
Al       0.00000000       0.00000000       0.00000000       0.00000000       0.00000000       0.21774143
Al       0.00000000       0.00000000       5.70202020       0.00000000       0.00000000      -0.21774143
2
Properties=species:S:1:pos:R:3:forces:R:3 energy=-0.46225458104812406 pbc="F F F"
Al       0.00000000       0.00000000       0.00000000       0.00000000       0.00000000       0.19359903
Al       0.00000000       0.00000000       5.76161616       0.00000000       0.00000000      -0.19359903
2
Properties=species:S:1:pos:R:3:forces:R:3 energy=-0.4522272081383923 pbc="F F F"
Al       0.00000000       0.00000000       0.00000000       0.00000000       0.00000000       0.13893364
Al       0.00000000       0.00000000       5.82121212       0.00000000       0.00000000      -0.13893364
2
Properties=species:S:1:pos:R:3:forces:R:3 energy=-0.44587960132352517 pbc="F F F"
Al       0.00000000       0.00000000       0.00000000       0.00000000       0.00000000       0.07551961
Al       0.00000000       0.00000000       5.88080808       0.00000000       0.00000000      -0.07551961
2
Properties=species:S:1:pos:R:3:forces:R:3 energy=-0.4429064756441289 pbc="F F F"
Al       0.00000000       0.00000000       0.00000000       0.00000000       0.00000000       0.02736634
Al       0.00000000       0.00000000       5.94040404       0.00000000       0.00000000      -0.02736634
2
Properties=species:S:1:pos:R:3:forces:R:3 energy=-0.44199816281888715 pbc="F F F"
Al       0.00000000       0.00000000       0.00000000       0.00000000       0.00000000       0.00916749
Al       0.00000000       0.00000000       6.00000000       0.00000000       0.00000000      -0.00916749
