2
Properties=species:S:1:pos:R:3:forces:R:3 energy=1214.4754566772656 pbc="F F F"
Al       0.00000000       0.00000000       0.00000000       0.00000000       0.00000000  -17299.17968750
Al       0.00000000       0.00000000       0.18000000       0.00000000       0.00000000   17299.17968750
2
Properties=species:S:1:pos:R:3:forces:R:3 energy=567.4493336303906 pbc="F F F"
Al       0.00000000       0.00000000       0.00000000       0.00000000       0.00000000   -6705.38183594
Al       0.00000000       0.00000000       0.23878788       0.00000000       0.00000000    6705.38183594
2
Properties=species:S:1:pos:R:3:forces:R:3 energy=298.20748182374996 pbc="F F F"
Al       0.00000000       0.00000000       0.00000000       0.00000000       0.00000000   -3030.67211914
Al       0.00000000       0.00000000       0.29757576       0.00000000       0.00000000    3030.67211914
2
Properties=species:S:1:pos:R:3:forces:R:3 energy=170.41118666407002 pbc="F F F"
Al       0.00000000       0.00000000       0.00000000       0.00000000       0.00000000   -1520.59912109
Al       0.00000000       0.00000000       0.35636364       0.00000000       0.00000000    1520.59912109
2
Properties=species:S:1:pos:R:3:forces:R:3 energy=104.01611373972958 pbc="F F F"
Al       0.00000000       0.00000000       0.00000000       0.00000000       0.00000000    -821.20880127
Al       0.00000000       0.00000000       0.41515152       0.00000000       0.00000000     821.20880127
2
Properties=species:S:1:pos:R:3:forces:R:3 energy=67.24549149898289 pbc="F F F"
Al       0.00000000       0.00000000       0.00000000       0.00000000       0.00000000    -467.27120972
Al       0.00000000       0.00000000       0.47393939       0.00000000       0.00000000     467.27120972
2
Properties=species:S:1:pos:R:3:forces:R:3 energy=45.98592809095184 pbc="F F F"
Al       0.00000000       0.00000000       0.00000000       0.00000000       0.00000000    -274.15710449
Al       0.00000000       0.00000000       0.53272727       0.00000000       0.00000000     274.15710449
2
Properties=species:S:1:pos:R:3:forces:R:3 energy=33.455669975597345 pbc="F F F"
Al       0.00000000       0.00000000       0.00000000       0.00000000       0.00000000    -161.81008911
Al       0.00000000       0.00000000       0.59151515       0.00000000       0.00000000     161.81008911
2
Properties=species:S:1:pos:R:3:forces:R:3 energy=26.098871911306226 pbc="F F F"
Al       0.00000000       0.00000000       0.00000000       0.00000000       0.00000000     -93.88356018
Al       0.00000000       0.00000000       0.65030303       0.00000000       0.00000000      93.88356018
2
Properties=species:S:1:pos:R:3:forces:R:3 energy=21.94499481139655 pbc="F F F"
Al       0.00000000       0.00000000       0.00000000       0.00000000       0.00000000     -50.40712357
Al       0.00000000       0.00000000       0.70909091       0.00000000       0.00000000      50.40712357
2
Properties=species:S:1:pos:R:3:forces:R:3 energy=19.892518181887752 pbc="F F F"
Al       0.00000000       0.00000000       0.00000000       0.00000000       0.00000000     -21.41036987
Al       0.00000000       0.00000000       0.76787879       0.00000000       0.00000000      21.41036987
2
Properties=species:S:1:pos:R:3:forces:R:3 energy=19.221807038356783 pbc="F F F"
Al       0.00000000       0.00000000       0.00000000       0.00000000       0.00000000      -2.93272042
Al       0.00000000       0.00000000       0.82666667       0.00000000       0.00000000       2.93272042
2
Properties=species:S:1:pos:R:3:forces:R:3 energy=19.392393196539476 pbc="F F F"
Al       0.00000000       0.00000000       0.00000000       0.00000000       0.00000000       7.56428719
Al       0.00000000       0.00000000       0.88545455       0.00000000       0.00000000      -7.56428719
2
Properties=species:S:1:pos:R:3:forces:R:3 energy=19.978333345158493 pbc="F F F"
Al       0.00000000       0.00000000       0.00000000       0.00000000       0.00000000      11.22597218
Al       0.00000000       0.00000000       0.94424242       0.00000000       0.00000000     -11.22597218
2
Properties=species:S:1:pos:R:3:forces:R:3 energy=20.574716506310505 pbc="F F F"
Al       0.00000000       0.00000000       0.00000000       0.00000000       0.00000000       7.92920971
Al       0.00000000       0.00000000       1.00303030       0.00000000       0.00000000      -7.92920971
2
Properties=species:S:1:pos:R:3:forces:R:3 energy=20.80488146169971 pbc="F F F"
Al       0.00000000       0.00000000       0.00000000       0.00000000       0.00000000      -0.61760974
Al       0.00000000       0.00000000       1.06181818       0.00000000       0.00000000       0.61760974
2
Properties=species:S:1:pos:R:3:forces:R:3 energy=20.490561768420932 pbc="F F F"
Al       0.00000000       0.00000000       0.00000000       0.00000000       0.00000000      -9.90823078
Al       0.00000000       0.00000000       1.12060606       0.00000000       0.00000000       9.90823078
2
Properties=species:S:1:pos:R:3:forces:R:3 energy=19.644704635706585 pbc="F F F"
Al       0.00000000       0.00000000       0.00000000       0.00000000       0.00000000     -19.18696976
Al       0.00000000       0.00000000       1.17939394       0.00000000       0.00000000      19.18696976
2
Properties=species:S:1:pos:R:3:forces:R:3 energy=18.149067932811256 pbc="F F F"
Al       0.00000000       0.00000000       0.00000000       0.00000000       0.00000000     -32.57912445
Al       0.00000000       0.00000000       1.23818182       0.00000000       0.00000000      32.57912445
2
Properties=species:S:1:pos:R:3:forces:R:3 energy=15.775956353038161 pbc="F F F"
Al       0.00000000       0.00000000       0.00000000       0.00000000       0.00000000     -47.44364166
Al       0.00000000       0.00000000       1.29696970       0.00000000       0.00000000      47.44364166
2
Properties=species:S:1:pos:R:3:forces:R:3 energy=12.79671426499647 pbc="F F F"
Al       0.00000000       0.00000000       0.00000000       0.00000000       0.00000000     -51.21015930
Al       0.00000000       0.00000000       1.35575758       0.00000000       0.00000000      51.21015930
2
Properties=species:S:1:pos:R:3:forces:R:3 energy=10.024289170023776 pbc="F F F"
Al       0.00000000       0.00000000       0.00000000       0.00000000       0.00000000     -41.88194275
Al       0.00000000       0.00000000       1.41454545       0.00000000       0.00000000      41.88194275
2
Properties=species:S:1:pos:R:3:forces:R:3 energy=7.890888422754151 pbc="F F F"
Al       0.00000000       0.00000000       0.00000000       0.00000000       0.00000000     -31.15789795
Al       0.00000000       0.00000000       1.47333333       0.00000000       0.00000000      31.15789795
2
Properties=species:S:1:pos:R:3:forces:R:3 energy=6.297650143454136 pbc="F F F"
Al       0.00000000       0.00000000       0.00000000       0.00000000       0.00000000     -23.53839684
Al       0.00000000       0.00000000       1.53212121       0.00000000       0.00000000      23.53839684
2
Properties=species:S:1:pos:R:3:forces:R:3 energy=5.070830924082948 pbc="F F F"
Al       0.00000000       0.00000000       0.00000000       0.00000000       0.00000000     -18.61818504
Al       0.00000000       0.00000000       1.59090909       0.00000000       0.00000000      18.61818504
2
Properties=species:S:1:pos:R:3:forces:R:3 energy=4.062837188719039 pbc="F F F"
Al       0.00000000       0.00000000       0.00000000       0.00000000       0.00000000     -16.01434708
Al       0.00000000       0.00000000       1.64969697       0.00000000       0.00000000      16.01434708
2
Properties=species:S:1:pos:R:3:forces:R:3 energy=3.157464121053898 pbc="F F F"
Al       0.00000000       0.00000000       0.00000000       0.00000000       0.00000000     -14.95102119
Al       0.00000000       0.00000000       1.70848485       0.00000000       0.00000000      14.95102119
2
Properties=species:S:1:pos:R:3:forces:R:3 energy=2.297042782420736 pbc="F F F"
Al       0.00000000       0.00000000       0.00000000       0.00000000       0.00000000     -14.30454445
Al       0.00000000       0.00000000       1.76727273       0.00000000       0.00000000      14.30454445
2
Properties=species:S:1:pos:R:3:forces:R:3 energy=1.483657119431508 pbc="F F F"
Al       0.00000000       0.00000000       0.00000000       0.00000000       0.00000000     -13.27098083
Al       0.00000000       0.00000000       1.82606061       0.00000000       0.00000000      13.27098083
2
Properties=species:S:1:pos:R:3:forces:R:3 energy=0.7476828811710342 pbc="F F F"
Al       0.00000000       0.00000000       0.00000000       0.00000000       0.00000000     -11.69071102
Al       0.00000000       0.00000000       1.88484848       0.00000000       0.00000000      11.69071102
2
Properties=species:S:1:pos:R:3:forces:R:3 energy=0.11496967395872537 pbc="F F F"
Al       0.00000000       0.00000000       0.00000000       0.00000000       0.00000000      -9.81210136
Al       0.00000000       0.00000000       1.94363636       0.00000000       0.00000000       9.81210136
2
Properties=species:S:1:pos:R:3:forces:R:3 energy=-0.4060937588348546 pbc="F F F"
Al       0.00000000       0.00000000       0.00000000       0.00000000       0.00000000      -7.93429184
Al       0.00000000       0.00000000       2.00242424       0.00000000       0.00000000       7.93429184
2
Properties=species:S:1:pos:R:3:forces:R:3 energy=-0.82158147571684 pbc="F F F"
Al       0.00000000       0.00000000       0.00000000       0.00000000       0.00000000      -6.24008942
Al       0.00000000       0.00000000       2.06121212       0.00000000       0.00000000       6.24008942
2
Properties=species:S:1:pos:R:3:forces:R:3 energy=-1.1448181128657504 pbc="F F F"
Al       0.00000000       0.00000000       0.00000000       0.00000000       0.00000000      -4.80129480
Al       0.00000000       0.00000000       2.12000000       0.00000000       0.00000000       4.80129480
2
Properties=species:S:1:pos:R:3:forces:R:3 energy=-1.3913452697563673 pbc="F F F"
Al       0.00000000       0.00000000       0.00000000       0.00000000       0.00000000      -3.62939739
Al       0.00000000       0.00000000       2.17878788       0.00000000       0.00000000       3.62939739
2
Properties=species:S:1:pos:R:3:forces:R:3 energy=-1.5764441624768872 pbc="F F F"
Al       0.00000000       0.00000000       0.00000000       0.00000000       0.00000000      -2.70688272
Al       0.00000000       0.00000000       2.23757576       0.00000000       0.00000000       2.70688272
2
Properties=species:S:1:pos:R:3:forces:R:3 energy=-1.713822980191413 pbc="F F F"
Al       0.00000000       0.00000000       0.00000000       0.00000000       0.00000000      -1.99908280
Al       0.00000000       0.00000000       2.29636364       0.00000000       0.00000000       1.99908280
2
Properties=species:S:1:pos:R:3:forces:R:3 energy=-1.8148079637472372 pbc="F F F"
Al       0.00000000       0.00000000       0.00000000       0.00000000       0.00000000      -1.46067512
Al       0.00000000       0.00000000       2.35515152       0.00000000       0.00000000       1.46067512
2
Properties=species:S:1:pos:R:3:forces:R:3 energy=-1.8879421800523855 pbc="F F F"
Al       0.00000000       0.00000000       0.00000000       0.00000000       0.00000000      -1.04385436
Al       0.00000000       0.00000000       2.41393939       0.00000000       0.00000000       1.04385436
2
Properties=species:S:1:pos:R:3:forces:R:3 energy=-1.9391045032819745 pbc="F F F"
Al       0.00000000       0.00000000       0.00000000       0.00000000       0.00000000      -0.70726329
Al       0.00000000       0.00000000       2.47272727       0.00000000       0.00000000       0.70726329
2
Properties=species:S:1:pos:R:3:forces:R:3 energy=-1.9720941693808023 pbc="F F F"
Al       0.00000000       0.00000000       0.00000000       0.00000000       0.00000000      -0.42192930
Al       0.00000000       0.00000000       2.53151515       0.00000000       0.00000000       0.42192930
2
Properties=species:S:1:pos:R:3:forces:R:3 energy=-1.9894002086709552 pbc="F F F"
Al       0.00000000       0.00000000       0.00000000       0.00000000       0.00000000      -0.17198955
Al       0.00000000       0.00000000       2.59030303       0.00000000       0.00000000       0.17198955
2
Properties=species:S:1:pos:R:3:forces:R:3 energy=-1.9928840050779026 pbc="F F F"
Al       0.00000000       0.00000000       0.00000000       0.00000000       0.00000000       0.04878192
Al       0.00000000       0.00000000       2.64909091       0.00000000       0.00000000      -0.04878192
2
Properties=species:S:1:pos:R:3:forces:R:3 energy=-1.9842166350491262 pbc="F F F"
Al       0.00000000       0.00000000       0.00000000       0.00000000       0.00000000       0.24130513
Al       0.00000000       0.00000000       2.70787879       0.00000000       0.00000000      -0.24130513
2
Properties=species:S:1:pos:R:3:forces:R:3 energy=-1.9650895693275798 pbc="F F F"
Al       0.00000000       0.00000000       0.00000000       0.00000000       0.00000000       0.40434405
Al       0.00000000       0.00000000       2.76666667       0.00000000       0.00000000      -0.40434405
2
Properties=species:S:1:pos:R:3:forces:R:3 energy=-1.9372861596504625 pbc="F F F"
Al       0.00000000       0.00000000       0.00000000       0.00000000       0.00000000       0.53624636
Al       0.00000000       0.00000000       2.82545455       0.00000000       0.00000000      -0.53624636
2
Properties=species:S:1:pos:R:3:forces:R:3 energy=-1.9026642668956006 pbc="F F F"
Al       0.00000000       0.00000000       0.00000000       0.00000000       0.00000000       0.63639796
Al       0.00000000       0.00000000       2.88424242       0.00000000       0.00000000      -0.63639796
2
Properties=species:S:1:pos:R:3:forces:R:3 energy=-1.8630343988919658 pbc="F F F"
Al       0.00000000       0.00000000       0.00000000       0.00000000       0.00000000       0.70748556
Al       0.00000000       0.00000000       2.94303030       0.00000000       0.00000000      -0.70748556
2
Properties=species:S:1:pos:R:3:forces:R:3 energy=-1.8199065494474038 pbc="F F F"
Al       0.00000000       0.00000000       0.00000000       0.00000000       0.00000000       0.75694174
Al       0.00000000       0.00000000       3.00181818       0.00000000       0.00000000      -0.75694174
2
Properties=species:S:1:pos:R:3:forces:R:3 energy=-1.7742918056154535 pbc="F F F"
Al       0.00000000       0.00000000       0.00000000       0.00000000       0.00000000       0.79319912
Al       0.00000000       0.00000000       3.06060606       0.00000000       0.00000000      -0.79319912
2
Properties=species:S:1:pos:R:3:forces:R:3 energy=-1.726823626178262 pbc="F F F"
Al       0.00000000       0.00000000       0.00000000       0.00000000       0.00000000       0.82024658
Al       0.00000000       0.00000000       3.11939394       0.00000000       0.00000000      -0.82024658
2
Properties=species:S:1:pos:R:3:forces:R:3 energy=-1.678012411755955 pbc="F F F"
Al       0.00000000       0.00000000       0.00000000       0.00000000       0.00000000       0.83905345
Al       0.00000000       0.00000000       3.17818182       0.00000000       0.00000000      -0.83905345
2
Properties=species:S:1:pos:R:3:forces:R:3 energy=-1.6283047803502788 pbc="F F F"
Al       0.00000000       0.00000000       0.00000000       0.00000000       0.00000000       0.85108697
Al       0.00000000       0.00000000       3.23696970       0.00000000       0.00000000      -0.85108697
2
Properties=species:S:1:pos:R:3:forces:R:3 energy=-1.5780397913562139 pbc="F F F"
Al       0.00000000       0.00000000       0.00000000       0.00000000       0.00000000       0.85825503
Al       0.00000000       0.00000000       3.29575758       0.00000000       0.00000000      -0.85825503
2
Properties=species:S:1:pos:R:3:forces:R:3 energy=-1.5274643661211798 pbc="F F F"
Al       0.00000000       0.00000000       0.00000000       0.00000000       0.00000000       0.86182010
Al       0.00000000       0.00000000       3.35454545       0.00000000       0.00000000      -0.86182010
2
Properties=species:S:1:pos:R:3:forces:R:3 energy=-1.4767733616384673 pbc="F F F"
Al       0.00000000       0.00000000       0.00000000       0.00000000       0.00000000       0.86219448
Al       0.00000000       0.00000000       3.41333333       0.00000000       0.00000000      -0.86219448
2
Properties=species:S:1:pos:R:3:forces:R:3 energy=-1.4261566274193103 pbc="F F F"
Al       0.00000000       0.00000000       0.00000000       0.00000000       0.00000000       0.85923493
Al       0.00000000       0.00000000       3.47212121       0.00000000       0.00000000      -0.85923493
2
Properties=species:S:1:pos:R:3:forces:R:3 energy=-1.3758211728225032 pbc="F F F"
Al       0.00000000       0.00000000       0.00000000       0.00000000       0.00000000       0.85253763
Al       0.00000000       0.00000000       3.53090909       0.00000000       0.00000000      -0.85253763
2
Properties=species:S:1:pos:R:3:forces:R:3 energy=-1.3260013940957625 pbc="F F F"
Al       0.00000000       0.00000000       0.00000000       0.00000000       0.00000000       0.84161752
Al       0.00000000       0.00000000       3.58969697       0.00000000       0.00000000      -0.84161752
2
Properties=species:S:1:pos:R:3:forces:R:3 energy=-1.276959183778184 pbc="F F F"
Al       0.00000000       0.00000000       0.00000000       0.00000000       0.00000000       0.82600766
Al       0.00000000       0.00000000       3.64848485       0.00000000       0.00000000      -0.82600766
2
Properties=species:S:1:pos:R:3:forces:R:3 energy=-1.2289824573595791 pbc="F F F"
Al       0.00000000       0.00000000       0.00000000       0.00000000       0.00000000       0.80535966
Al       0.00000000       0.00000000       3.70727273       0.00000000       0.00000000      -0.80535966
2
Properties=species:S:1:pos:R:3:forces:R:3 energy=-1.1823697766262582 pbc="F F F"
Al       0.00000000       0.00000000       0.00000000       0.00000000       0.00000000       0.77955407
Al       0.00000000       0.00000000       3.76606061       0.00000000       0.00000000      -0.77955407
2
Properties=species:S:1:pos:R:3:forces:R:3 energy=-1.1374220753749187 pbc="F F F"
Al       0.00000000       0.00000000       0.00000000       0.00000000       0.00000000       0.74880868
Al       0.00000000       0.00000000       3.82484848       0.00000000       0.00000000      -0.74880868
2
Properties=species:S:1:pos:R:3:forces:R:3 energy=-1.0944127753989488 pbc="F F F"
Al       0.00000000       0.00000000       0.00000000       0.00000000       0.00000000       0.71372831
Al       0.00000000       0.00000000       3.88363636       0.00000000       0.00000000      -0.71372831
2
Properties=species:S:1:pos:R:3:forces:R:3 energy=-1.0535708230913492 pbc="F F F"
Al       0.00000000       0.00000000       0.00000000       0.00000000       0.00000000       0.67529368
Al       0.00000000       0.00000000       3.94242424       0.00000000       0.00000000      -0.67529368
2
Properties=species:S:1:pos:R:3:forces:R:3 energy=-1.0150566926995732 pbc="F F F"
Al       0.00000000       0.00000000       0.00000000       0.00000000       0.00000000       0.63476282
Al       0.00000000       0.00000000       4.00121212       0.00000000       0.00000000      -0.63476282
2
Properties=species:S:1:pos:R:3:forces:R:3 energy=-0.9789522794624668 pbc="F F F"
Al       0.00000000       0.00000000       0.00000000       0.00000000       0.00000000       0.59351456
Al       0.00000000       0.00000000       4.06000000       0.00000000       0.00000000      -0.59351456
2
Properties=species:S:1:pos:R:3:forces:R:3 energy=-0.9452611881300267 pbc="F F F"
Al       0.00000000       0.00000000       0.00000000       0.00000000       0.00000000       0.55289227
Al       0.00000000       0.00000000       4.11878788       0.00000000       0.00000000      -0.55289227
2
Properties=species:S:1:pos:R:3:forces:R:3 energy=-0.9139108407167464 pbc="F F F"
Al       0.00000000       0.00000000       0.00000000       0.00000000       0.00000000       0.51403707
Al       0.00000000       0.00000000       4.17757576       0.00000000       0.00000000      -0.51403707
2
Properties=species:S:1:pos:R:3:forces:R:3 energy=-0.8847709501896983 pbc="F F F"
Al       0.00000000       0.00000000       0.00000000       0.00000000       0.00000000       0.47779560
Al       0.00000000       0.00000000       4.23636364       0.00000000       0.00000000      -0.47779560
2
Properties=species:S:1:pos:R:3:forces:R:3 energy=-0.8576722509981519 pbc="F F F"
Al       0.00000000       0.00000000       0.00000000       0.00000000       0.00000000       0.44465163
Al       0.00000000       0.00000000       4.29515152       0.00000000       0.00000000      -0.44465163
2
Properties=species:S:1:pos:R:3:forces:R:3 energy=-0.8324273221014034 pbc="F F F"
Al       0.00000000       0.00000000       0.00000000       0.00000000       0.00000000       0.41475791
Al       0.00000000       0.00000000       4.35393939       0.00000000       0.00000000      -0.41475791
2
Properties=species:S:1:pos:R:3:forces:R:3 energy=-0.8088461008474457 pbc="F F F"
Al       0.00000000       0.00000000       0.00000000       0.00000000       0.00000000       0.38798422
Al       0.00000000       0.00000000       4.41272727       0.00000000       0.00000000      -0.38798422
2
Properties=species:S:1:pos:R:3:forces:R:3 energy=-0.7867536704996893 pbc="F F F"
Al       0.00000000       0.00000000       0.00000000       0.00000000       0.00000000       0.36405003
Al       0.00000000       0.00000000       4.47151515       0.00000000       0.00000000      -0.36405003
2
Properties=species:S:1:pos:R:3:forces:R:3 energy=-0.7659925755625834 pbc="F F F"
Al       0.00000000       0.00000000       0.00000000       0.00000000       0.00000000       0.34264466
Al       0.00000000       0.00000000       4.53030303       0.00000000       0.00000000      -0.34264466
2
Properties=species:S:1:pos:R:3:forces:R:3 energy=-0.7464221502914133 pbc="F F F"
Al       0.00000000       0.00000000       0.00000000       0.00000000       0.00000000       0.32354772
Al       0.00000000       0.00000000       4.58909091       0.00000000       0.00000000      -0.32354772
2
Properties=species:S:1:pos:R:3:forces:R:3 energy=-0.7279079427436215 pbc="F F F"
Al       0.00000000       0.00000000       0.00000000       0.00000000       0.00000000       0.30669835
Al       0.00000000       0.00000000       4.64787879       0.00000000       0.00000000      -0.30669835
2
Properties=species:S:1:pos:R:3:forces:R:3 energy=-0.7103159434636487 pbc="F F F"
Al       0.00000000       0.00000000       0.00000000       0.00000000       0.00000000       0.29217342
Al       0.00000000       0.00000000       4.70666667       0.00000000       0.00000000      -0.29217342
2
Properties=species:S:1:pos:R:3:forces:R:3 energy=-0.6935074289732142 pbc="F F F"
Al       0.00000000       0.00000000       0.00000000       0.00000000       0.00000000       0.28009376
Al       0.00000000       0.00000000       4.76545455       0.00000000       0.00000000      -0.28009376
2
Properties=species:S:1:pos:R:3:forces:R:3 energy=-0.677335679180079 pbc="F F F"
Al       0.00000000       0.00000000       0.00000000       0.00000000       0.00000000       0.27042711
Al       0.00000000       0.00000000       4.82424242       0.00000000       0.00000000      -0.27042711
2
Properties=species:S:1:pos:R:3:forces:R:3 energy=-0.6616729155096618 pbc="F F F"
Al       0.00000000       0.00000000       0.00000000       0.00000000       0.00000000       0.26275334
Al       0.00000000       0.00000000       4.88303030       0.00000000       0.00000000      -0.26275334
2
Properties=species:S:1:pos:R:3:forces:R:3 energy=-0.6464228864045773 pbc="F F F"
Al       0.00000000       0.00000000       0.00000000       0.00000000       0.00000000       0.25608012
Al       0.00000000       0.00000000       4.94181818       0.00000000       0.00000000      -0.25608012
2
Properties=species:S:1:pos:R:3:forces:R:3 energy=-0.6315732994051706 pbc="F F F"
Al       0.00000000       0.00000000       0.00000000       0.00000000       0.00000000       0.24889895
Al       0.00000000       0.00000000       5.00060606       0.00000000       0.00000000      -0.24889895
2
Properties=species:S:1:pos:R:3:forces:R:3 energy=-0.6171960401452041 pbc="F F F"
Al       0.00000000       0.00000000       0.00000000       0.00000000       0.00000000       0.23981425
Al       0.00000000       0.00000000       5.05939394       0.00000000       0.00000000      -0.23981425
2
Properties=species:S:1:pos:R:3:forces:R:3 energy=-0.6034110180910153 pbc="F F F"
Al       0.00000000       0.00000000       0.00000000       0.00000000       0.00000000       0.22911049
Al       0.00000000       0.00000000       5.11818182       0.00000000       0.00000000      -0.22911049
2
Properties=species:S:1:pos:R:3:forces:R:3 energy=-0.5902180340939353 pbc="F F F"
Al       0.00000000       0.00000000       0.00000000       0.00000000       0.00000000       0.22061676
Al       0.00000000       0.00000000       5.17696970       0.00000000       0.00000000      -0.22061676
2
Properties=species:S:1:pos:R:3:forces:R:3 energy=-0.5772995507886132 pbc="F F F"
Al       0.00000000       0.00000000       0.00000000       0.00000000       0.00000000       0.22080150
Al       0.00000000       0.00000000       5.23575758       0.00000000       0.00000000      -0.22080150
2
Properties=species:S:1:pos:R:3:forces:R:3 energy=-0.5640432183970092 pbc="F F F"
Al       0.00000000       0.00000000       0.00000000       0.00000000       0.00000000       0.23142892
Al       0.00000000       0.00000000       5.29454545       0.00000000       0.00000000      -0.23142892
2
Properties=species:S:1:pos:R:3:forces:R:3 energy=-0.5500846405434037 pbc="F F F"
Al       0.00000000       0.00000000       0.00000000       0.00000000       0.00000000       0.24205315
Al       0.00000000       0.00000000       5.35333333       0.00000000       0.00000000      -0.24205315
2
Properties=species:S:1:pos:R:3:forces:R:3 energy=-0.5358810958868488 pbc="F F F"
Al       0.00000000       0.00000000       0.00000000       0.00000000       0.00000000       0.23808852
Al       0.00000000       0.00000000       5.41212121       0.00000000       0.00000000      -0.23808852
2
Properties=species:S:1:pos:R:3:forces:R:3 energy=-0.5224043110233954 pbc="F F F"
Al       0.00000000       0.00000000       0.00000000       0.00000000       0.00000000       0.21876094
Al       0.00000000       0.00000000       5.47090909       0.00000000       0.00000000      -0.21876094
2
Properties=species:S:1:pos:R:3:forces:R:3 energy=-0.5101504830652488 pbc="F F F"
Al       0.00000000       0.00000000       0.00000000       0.00000000       0.00000000       0.19985387
Al       0.00000000       0.00000000       5.52969697       0.00000000       0.00000000      -0.19985387
2
Properties=species:S:1:pos:R:3:forces:R:3 energy=-0.49855628471062535 pbc="F F F"
Al       0.00000000       0.00000000       0.00000000       0.00000000       0.00000000       0.19813819
Al       0.00000000       0.00000000       5.58848485       0.00000000       0.00000000      -0.19813819
2
Properties=species:S:1:pos:R:3:forces:R:3 energy=-0.4865413514584305 pbc="F F F"
Al       0.00000000       0.00000000       0.00000000       0.00000000       0.00000000       0.21189065
Al       0.00000000       0.00000000       5.64727273       0.00000000       0.00000000      -0.21189065
2
Properties=species:S:1:pos:R:3:forces:R:3 energy=-0.4738112819086477 pbc="F F F"
Al       0.00000000       0.00000000       0.00000000       0.00000000       0.00000000       0.21718135
Al       0.00000000       0.00000000       5.70606061       0.00000000       0.00000000      -0.21718135
2
Properties=species:S:1:pos:R:3:forces:R:3 energy=-0.4616072506176434 pbc="F F F"
Al       0.00000000       0.00000000       0.00000000       0.00000000       0.00000000       0.19136509
Al       0.00000000       0.00000000       5.76484848       0.00000000       0.00000000      -0.19136509
2
Properties=species:S:1:pos:R:3:forces:R:3 energy=-0.451880583470417 pbc="F F F"
Al       0.00000000       0.00000000       0.00000000       0.00000000       0.00000000       0.13639714
Al       0.00000000       0.00000000       5.82363636       0.00000000       0.00000000      -0.13639714
2
Properties=species:S:1:pos:R:3:forces:R:3 energy=-0.4457457302128333 pbc="F F F"
Al       0.00000000       0.00000000       0.00000000       0.00000000       0.00000000       0.07394105
Al       0.00000000       0.00000000       5.88242424       0.00000000       0.00000000      -0.07394105
2
Properties=species:S:1:pos:R:3:forces:R:3 energy=-0.44288849982684625 pbc="F F F"
Al       0.00000000       0.00000000       0.00000000       0.00000000       0.00000000       0.02686350
Al       0.00000000       0.00000000       5.94121212       0.00000000       0.00000000      -0.02686350
2
Properties=species:S:1:pos:R:3:forces:R:3 energy=-0.44199816281888715 pbc="F F F"
Al       0.00000000       0.00000000       0.00000000       0.00000000       0.00000000       0.00916749
Al       0.00000000       0.00000000       6.00000000       0.00000000       0.00000000      -0.00916749
