2
Properties=species:S:1:pos:R:3:forces:R:3 energy=8093.865182788972 pbc="F F F"
Ar       0.00000000       0.00000000       0.00000000       0.00000000       0.00000000 -173859.15625000
Ar       0.00000000       0.00000000       0.10000000       0.00000000       0.00000000  173859.15625000
2
Properties=species:S:1:pos:R:3:forces:R:3 energy=2696.851999195221 pbc="F F F"
Ar       0.00000000       0.00000000       0.00000000       0.00000000       0.00000000  -43352.75000000
Ar       0.00000000       0.00000000       0.15959596       0.00000000       0.00000000   43352.75000000
2
Properties=species:S:1:pos:R:3:forces:R:3 energy=1136.0907687264712 pbc="F F F"
Ar       0.00000000       0.00000000       0.00000000       0.00000000       0.00000000  -14983.61914062
Ar       0.00000000       0.00000000       0.21919192       0.00000000       0.00000000   14983.61914062
2
Properties=species:S:1:pos:R:3:forces:R:3 energy=547.9260348413364 pbc="F F F"
Ar       0.00000000       0.00000000       0.00000000       0.00000000       0.00000000   -6254.84423828
Ar       0.00000000       0.00000000       0.27878788       0.00000000       0.00000000    6254.84423828
2
Properties=species:S:1:pos:R:3:forces:R:3 energy=287.94828216212517 pbc="F F F"
Ar       0.00000000       0.00000000       0.00000000       0.00000000       0.00000000   -2951.48046875
Ar       0.00000000       0.00000000       0.33838384       0.00000000       0.00000000    2951.48046875
2
Properties=species:S:1:pos:R:3:forces:R:3 energy=160.39043610704442 pbc="F F F"
Ar       0.00000000       0.00000000       0.00000000       0.00000000       0.00000000   -1512.63928223
Ar       0.00000000       0.00000000       0.39797980       0.00000000       0.00000000    1512.63928223
2
Properties=species:S:1:pos:R:3:forces:R:3 energy=93.19588657659186 pbc="F F F"
Ar       0.00000000       0.00000000       0.00000000       0.00000000       0.00000000    -821.46765137
Ar       0.00000000       0.00000000       0.45757576       0.00000000       0.00000000     821.46765137
2
Properties=species:S:1:pos:R:3:forces:R:3 energy=55.95500376007751 pbc="F F F"
Ar       0.00000000       0.00000000       0.00000000       0.00000000       0.00000000    -465.69619751
Ar       0.00000000       0.00000000       0.51717172       0.00000000       0.00000000     465.69619751
2
Properties=species:S:1:pos:R:3:forces:R:3 energy=34.502580768912516 pbc="F F F"
Ar       0.00000000       0.00000000       0.00000000       0.00000000       0.00000000    -273.11553955
Ar       0.00000000       0.00000000       0.57676768       0.00000000       0.00000000     273.11553955
2
Properties=species:S:1:pos:R:3:forces:R:3 energy=21.75286513808902 pbc="F F F"
Ar       0.00000000       0.00000000       0.00000000       0.00000000       0.00000000    -164.77549744
Ar       0.00000000       0.00000000       0.63636364       0.00000000       0.00000000     164.77549744
2
Properties=species:S:1:pos:R:3:forces:R:3 energy=13.971295937545284 pbc="F F F"
Ar       0.00000000       0.00000000       0.00000000       0.00000000       0.00000000    -101.88963318
Ar       0.00000000       0.00000000       0.69595960       0.00000000       0.00000000     101.88963318
2
Properties=species:S:1:pos:R:3:forces:R:3 energy=9.10982137594046 pbc="F F F"
Ar       0.00000000       0.00000000       0.00000000       0.00000000       0.00000000     -64.39497375
Ar       0.00000000       0.00000000       0.75555556       0.00000000       0.00000000      64.39497375
2
Properties=species:S:1:pos:R:3:forces:R:3 energy=6.009000997621539 pbc="F F F"
Ar       0.00000000       0.00000000       0.00000000       0.00000000       0.00000000     -41.49618912
Ar       0.00000000       0.00000000       0.81515152       0.00000000       0.00000000      41.49618912
2
Properties=species:S:1:pos:R:3:forces:R:3 energy=3.9945475641846384 pbc="F F F"
Ar       0.00000000       0.00000000       0.00000000       0.00000000       0.00000000     -27.20008278
Ar       0.00000000       0.00000000       0.87474747       0.00000000       0.00000000      27.20008278
2
Properties=species:S:1:pos:R:3:forces:R:3 energy=2.664827901694502 pbc="F F F"
Ar       0.00000000       0.00000000       0.00000000       0.00000000       0.00000000     -18.09120941
Ar       0.00000000       0.00000000       0.93434343       0.00000000       0.00000000      18.09120941
2
Properties=species:S:1:pos:R:3:forces:R:3 energy=1.775250182325953 pbc="F F F"
Ar       0.00000000       0.00000000       0.00000000       0.00000000       0.00000000     -12.17800808
Ar       0.00000000       0.00000000       0.99393939       0.00000000       0.00000000      12.17800808
2
Properties=species:S:1:pos:R:3:forces:R:3 energy=1.1736809646084667 pbc="F F F"
Ar       0.00000000       0.00000000       0.00000000       0.00000000       0.00000000      -8.27455044
Ar       0.00000000       0.00000000       1.05353535       0.00000000       0.00000000       8.27455044
2
Properties=species:S:1:pos:R:3:forces:R:3 energy=0.7635553613398081 pbc="F F F"
Ar       0.00000000       0.00000000       0.00000000       0.00000000       0.00000000      -5.66033602
Ar       0.00000000       0.00000000       1.11313131       0.00000000       0.00000000       5.66033602
2
Properties=species:S:1:pos:R:3:forces:R:3 energy=0.4823814494093496 pbc="F F F"
Ar       0.00000000       0.00000000       0.00000000       0.00000000       0.00000000      -3.88869047
Ar       0.00000000       0.00000000       1.17272727       0.00000000       0.00000000       3.88869047
2
Properties=species:S:1:pos:R:3:forces:R:3 energy=0.2890043196016217 pbc="F F F"
Ar       0.00000000       0.00000000       0.00000000       0.00000000       0.00000000      -2.67653370
Ar       0.00000000       0.00000000       1.23232323       0.00000000       0.00000000       2.67653370
2
Properties=species:S:1:pos:R:3:forces:R:3 energy=0.15592404259820963 pbc="F F F"
Ar       0.00000000       0.00000000       0.00000000       0.00000000       0.00000000      -1.84075177
Ar       0.00000000       0.00000000       1.29191919       0.00000000       0.00000000       1.84075177
2
Properties=species:S:1:pos:R:3:forces:R:3 energy=0.0645380246478708 pbc="F F F"
Ar       0.00000000       0.00000000       0.00000000       0.00000000       0.00000000      -1.26118672
Ar       0.00000000       0.00000000       1.35151515       0.00000000       0.00000000       1.26118672
2
Properties=species:S:1:pos:R:3:forces:R:3 energy=0.0021120356823858717 pbc="F F F"
Ar       0.00000000       0.00000000       0.00000000       0.00000000       0.00000000      -0.85809559
Ar       0.00000000       0.00000000       1.41111111       0.00000000       0.00000000       0.85809559
2
Properties=species:S:1:pos:R:3:forces:R:3 energy=-0.04016942945768334 pbc="F F F"
Ar       0.00000000       0.00000000       0.00000000       0.00000000       0.00000000      -0.57784432
Ar       0.00000000       0.00000000       1.47070707       0.00000000       0.00000000       0.57784432
2
Properties=species:S:1:pos:R:3:forces:R:3 energy=-0.06846629303555538 pbc="F F F"
Ar       0.00000000       0.00000000       0.00000000       0.00000000       0.00000000      -0.38373008
Ar       0.00000000       0.00000000       1.53030303       0.00000000       0.00000000       0.38373008
2
Properties=species:S:1:pos:R:3:forces:R:3 energy=-0.08710601359125189 pbc="F F F"
Ar       0.00000000       0.00000000       0.00000000       0.00000000       0.00000000      -0.25022143
Ar       0.00000000       0.00000000       1.58989899       0.00000000       0.00000000       0.25022143
2
Properties=species:S:1:pos:R:3:forces:R:3 energy=-0.09913406762925617 pbc="F F F"
Ar       0.00000000       0.00000000       0.00000000       0.00000000       0.00000000      -0.15934490
Ar       0.00000000       0.00000000       1.64949495       0.00000000       0.00000000       0.15934490
2
Properties=species:S:1:pos:R:3:forces:R:3 energy=-0.1066902259984116 pbc="F F F"
Ar       0.00000000       0.00000000       0.00000000       0.00000000       0.00000000      -0.09836896
Ar       0.00000000       0.00000000       1.70909091       0.00000000       0.00000000       0.09836896
2
Properties=species:S:1:pos:R:3:forces:R:3 energy=-0.11127142043631569 pbc="F F F"
Ar       0.00000000       0.00000000       0.00000000       0.00000000       0.00000000      -0.05824539
Ar       0.00000000       0.00000000       1.76868687       0.00000000       0.00000000       0.05824539
2
Properties=species:S:1:pos:R:3:forces:R:3 energy=-0.1139177318552929 pbc="F F F"
Ar       0.00000000       0.00000000       0.00000000       0.00000000       0.00000000      -0.03253653
Ar       0.00000000       0.00000000       1.82828283       0.00000000       0.00000000       0.03253653
2
Properties=species:S:1:pos:R:3:forces:R:3 energy=-0.11534395715432044 pbc="F F F"
Ar       0.00000000       0.00000000       0.00000000       0.00000000       0.00000000      -0.01665831
Ar       0.00000000       0.00000000       1.88787879       0.00000000       0.00000000       0.01665831
2
Properties=species:S:1:pos:R:3:forces:R:3 energy=-0.11603325222174199 pbc="F F F"
Ar       0.00000000       0.00000000       0.00000000       0.00000000       0.00000000      -0.00735241
Ar       0.00000000       0.00000000       1.94747475       0.00000000       0.00000000       0.00735241
2
Properties=species:S:1:pos:R:3:forces:R:3 energy=-0.11630456033563141 pbc="F F F"
Ar       0.00000000       0.00000000       0.00000000       0.00000000       0.00000000      -0.00231320
Ar       0.00000000       0.00000000       2.00707071       0.00000000       0.00000000       0.00231320
2
Properties=species:S:1:pos:R:3:forces:R:3 energy=-0.1163613139103075 pbc="F F F"
Ar       0.00000000       0.00000000       0.00000000       0.00000000       0.00000000       0.00007169
Ar       0.00000000       0.00000000       2.06666667       0.00000000       0.00000000      -0.00007169
2
Properties=species:S:1:pos:R:3:forces:R:3 energy=-0.116326708712702 pbc="F F F"
Ar       0.00000000       0.00000000       0.00000000       0.00000000       0.00000000       0.00090434
Ar       0.00000000       0.00000000       2.12626263       0.00000000       0.00000000      -0.00090434
2
Properties=species:S:1:pos:R:3:forces:R:3 energy=-0.11626180812724846 pbc="F F F"
Ar       0.00000000       0.00000000       0.00000000       0.00000000       0.00000000       0.00126017
Ar       0.00000000       0.00000000       2.18585859       0.00000000       0.00000000      -0.00126017
2
Properties=species:S:1:pos:R:3:forces:R:3 energy=-0.11617818949000275 pbc="F F F"
Ar       0.00000000       0.00000000       0.00000000       0.00000000       0.00000000       0.00153061
Ar       0.00000000       0.00000000       2.24545455       0.00000000       0.00000000      -0.00153061
2
Properties=species:S:1:pos:R:3:forces:R:3 energy=-0.11608139030000272 pbc="F F F"
Ar       0.00000000       0.00000000       0.00000000       0.00000000       0.00000000       0.00169931
Ar       0.00000000       0.00000000       2.30505051       0.00000000       0.00000000      -0.00169931
2
Properties=species:S:1:pos:R:3:forces:R:3 energy=-0.11597799688923807 pbc="F F F"
Ar       0.00000000       0.00000000       0.00000000       0.00000000       0.00000000       0.00175032
Ar       0.00000000       0.00000000       2.36464646       0.00000000       0.00000000      -0.00175032
2
Properties=species:S:1:pos:R:3:forces:R:3 energy=-0.115875132677463 pbc="F F F"
Ar       0.00000000       0.00000000       0.00000000       0.00000000       0.00000000       0.00168329
Ar       0.00000000       0.00000000       2.42424242       0.00000000       0.00000000      -0.00168329
2
Properties=species:S:1:pos:R:3:forces:R:3 energy=-0.1157792510011527 pbc="F F F"
Ar       0.00000000       0.00000000       0.00000000       0.00000000       0.00000000       0.00152204
Ar       0.00000000       0.00000000       2.48383838       0.00000000       0.00000000      -0.00152204
2
Properties=species:S:1:pos:R:3:forces:R:3 energy=-0.11569467397675824 pbc="F F F"
Ar       0.00000000       0.00000000       0.00000000       0.00000000       0.00000000       0.00131282
Ar       0.00000000       0.00000000       2.54343434       0.00000000       0.00000000      -0.00131282
2
Properties=species:S:1:pos:R:3:forces:R:3 energy=-0.11562257458501324 pbc="F F F"
Ar       0.00000000       0.00000000       0.00000000       0.00000000       0.00000000       0.00111347
Ar       0.00000000       0.00000000       2.60303030       0.00000000       0.00000000      -0.00111347
2
Properties=species:S:1:pos:R:3:forces:R:3 energy=-0.11556065482705848 pbc="F F F"
Ar       0.00000000       0.00000000       0.00000000       0.00000000       0.00000000       0.00097949
Ar       0.00000000       0.00000000       2.66262626       0.00000000       0.00000000      -0.00097949
2
Properties=species:S:1:pos:R:3:forces:R:3 energy=-0.1155036876789409 pbc="F F F"
Ar       0.00000000       0.00000000       0.00000000       0.00000000       0.00000000       0.00095223
Ar       0.00000000       0.00000000       2.72222222       0.00000000       0.00000000      -0.00095223
2
Properties=species:S:1:pos:R:3:forces:R:3 energy=-0.11544459419599248 pbc="F F F"
Ar       0.00000000       0.00000000       0.00000000       0.00000000       0.00000000       0.00105289
Ar       0.00000000       0.00000000       2.78181818       0.00000000       0.00000000      -0.00105289
2
Properties=species:S:1:pos:R:3:forces:R:3 energy=-0.11537562240347693 pbc="F F F"
Ar       0.00000000       0.00000000       0.00000000       0.00000000       0.00000000       0.00128254
Ar       0.00000000       0.00000000       2.84141414       0.00000000       0.00000000      -0.00128254
2
Properties=species:S:1:pos:R:3:forces:R:3 energy=-0.11528945690213831 pbc="F F F"
Ar       0.00000000       0.00000000       0.00000000       0.00000000       0.00000000       0.00162642
Ar       0.00000000       0.00000000       2.90101010       0.00000000       0.00000000      -0.00162642
2
Properties=species:S:1:pos:R:3:forces:R:3 energy=-0.11517998005735952 pbc="F F F"
Ar       0.00000000       0.00000000       0.00000000       0.00000000       0.00000000       0.00206028
Ar       0.00000000       0.00000000       2.96060606       0.00000000       0.00000000      -0.00206028
2
Properties=species:S:1:pos:R:3:forces:R:3 energy=-0.11504264986390142 pbc="F F F"
Ar       0.00000000       0.00000000       0.00000000       0.00000000       0.00000000       0.00255649
Ar       0.00000000       0.00000000       3.02020202       0.00000000       0.00000000      -0.00255649
2
Properties=species:S:1:pos:R:3:forces:R:3 energy=-0.11487454764022173 pbc="F F F"
Ar       0.00000000       0.00000000       0.00000000       0.00000000       0.00000000       0.00308878
Ar       0.00000000       0.00000000       3.07979798       0.00000000       0.00000000      -0.00308878
2
Properties=species:S:1:pos:R:3:forces:R:3 energy=-0.11467421170884265 pbc="F F F"
Ar       0.00000000       0.00000000       0.00000000       0.00000000       0.00000000       0.00363514
Ar       0.00000000       0.00000000       3.13939394       0.00000000       0.00000000      -0.00363514
2
Properties=species:S:1:pos:R:3:forces:R:3 energy=-0.11444132605587677 pbc="F F F"
Ar       0.00000000       0.00000000       0.00000000       0.00000000       0.00000000       0.00417887
Ar       0.00000000       0.00000000       3.19898990       0.00000000       0.00000000      -0.00417887
2
Properties=species:S:1:pos:R:3:forces:R:3 energy=-0.11417641186638723 pbc="F F F"
Ar       0.00000000       0.00000000       0.00000000       0.00000000       0.00000000       0.00470843
Ar       0.00000000       0.00000000       3.25858586       0.00000000       0.00000000      -0.00470843
2
Properties=species:S:1:pos:R:3:forces:R:3 energy=-0.11388055314482871 pbc="F F F"
Ar       0.00000000       0.00000000       0.00000000       0.00000000       0.00000000       0.00521632
Ar       0.00000000       0.00000000       3.31818182       0.00000000       0.00000000      -0.00521632
2
Properties=species:S:1:pos:R:3:forces:R:3 energy=-0.11355519244353465 pbc="F F F"
Ar       0.00000000       0.00000000       0.00000000       0.00000000       0.00000000       0.00569774
Ar       0.00000000       0.00000000       3.37777778       0.00000000       0.00000000      -0.00569774
2
Properties=species:S:1:pos:R:3:forces:R:3 energy=-0.11320202661657437 pbc="F F F"
Ar       0.00000000       0.00000000       0.00000000       0.00000000       0.00000000       0.00614914
Ar       0.00000000       0.00000000       3.43737374       0.00000000       0.00000000      -0.00614914
2
Properties=species:S:1:pos:R:3:forces:R:3 energy=-0.11282293337586764 pbc="F F F"
Ar       0.00000000       0.00000000       0.00000000       0.00000000       0.00000000       0.00656712
Ar       0.00000000       0.00000000       3.49696970       0.00000000       0.00000000      -0.00656712
2
Properties=species:S:1:pos:R:3:forces:R:3 energy=-0.11242002033941222 pbc="F F F"
Ar       0.00000000       0.00000000       0.00000000       0.00000000       0.00000000       0.00694771
Ar       0.00000000       0.00000000       3.55656566       0.00000000       0.00000000      -0.00694771
2
Properties=species:S:1:pos:R:3:forces:R:3 energy=-0.11199565305068535 pbc="F F F"
Ar       0.00000000       0.00000000       0.00000000       0.00000000       0.00000000       0.00728620
Ar       0.00000000       0.00000000       3.61616162       0.00000000       0.00000000      -0.00728620
2
Properties=species:S:1:pos:R:3:forces:R:3 energy=-0.1115524961383087 pbc="F F F"
Ar       0.00000000       0.00000000       0.00000000       0.00000000       0.00000000       0.00757752
Ar       0.00000000       0.00000000       3.67575758       0.00000000       0.00000000      -0.00757752
2
Properties=species:S:1:pos:R:3:forces:R:3 energy=-0.11109351038719845 pbc="F F F"
Ar       0.00000000       0.00000000       0.00000000       0.00000000       0.00000000       0.00781686
Ar       0.00000000       0.00000000       3.73535354       0.00000000       0.00000000      -0.00781686
2
Properties=species:S:1:pos:R:3:forces:R:3 energy=-0.11062190050049256 pbc="F F F"
Ar       0.00000000       0.00000000       0.00000000       0.00000000       0.00000000       0.00800055
Ar       0.00000000       0.00000000       3.79494949       0.00000000       0.00000000      -0.00800055
2
Properties=species:S:1:pos:R:3:forces:R:3 energy=-0.11014105444195527 pbc="F F F"
Ar       0.00000000       0.00000000       0.00000000       0.00000000       0.00000000       0.00812681
Ar       0.00000000       0.00000000       3.85454545       0.00000000       0.00000000      -0.00812681
2
Properties=species:S:1:pos:R:3:forces:R:3 energy=-0.1096543765633612 pbc="F F F"
Ar       0.00000000       0.00000000       0.00000000       0.00000000       0.00000000       0.00819634
Ar       0.00000000       0.00000000       3.91414141       0.00000000       0.00000000      -0.00819634
2
Properties=species:S:1:pos:R:3:forces:R:3 energy=-0.109165174907837 pbc="F F F"
Ar       0.00000000       0.00000000       0.00000000       0.00000000       0.00000000       0.00821246
Ar       0.00000000       0.00000000       3.97373737       0.00000000       0.00000000      -0.00821246
2
Properties=species:S:1:pos:R:3:forces:R:3 energy=-0.10867647019361308 pbc="F F F"
Ar       0.00000000       0.00000000       0.00000000       0.00000000       0.00000000       0.00818082
Ar       0.00000000       0.00000000       4.03333333       0.00000000       0.00000000      -0.00818082
2
Properties=species:S:1:pos:R:3:forces:R:3 energy=-0.10819089118291451 pbc="F F F"
Ar       0.00000000       0.00000000       0.00000000       0.00000000       0.00000000       0.00810867
Ar       0.00000000       0.00000000       4.09292929       0.00000000       0.00000000      -0.00810867
2
Properties=species:S:1:pos:R:3:forces:R:3 energy=-0.10771063106242107 pbc="F F F"
Ar       0.00000000       0.00000000       0.00000000       0.00000000       0.00000000       0.00800383
Ar       0.00000000       0.00000000       4.15252525       0.00000000       0.00000000      -0.00800383
2
Properties=species:S:1:pos:R:3:forces:R:3 energy=-0.10723740904443511 pbc="F F F"
Ar       0.00000000       0.00000000       0.00000000       0.00000000       0.00000000       0.00787354
Ar       0.00000000       0.00000000       4.21212121       0.00000000       0.00000000      -0.00787354
2
Properties=species:S:1:pos:R:3:forces:R:3 energy=-0.10677255729399246 pbc="F F F"
Ar       0.00000000       0.00000000       0.00000000       0.00000000       0.00000000       0.00772360
Ar       0.00000000       0.00000000       4.27171717       0.00000000       0.00000000      -0.00772360
2
Properties=species:S:1:pos:R:3:forces:R:3 energy=-0.10631712826983034 pbc="F F F"
Ar       0.00000000       0.00000000       0.00000000       0.00000000       0.00000000       0.00755779
Ar       0.00000000       0.00000000       4.33131313       0.00000000       0.00000000      -0.00755779
2
Properties=species:S:1:pos:R:3:forces:R:3 energy=-0.10587200486819257 pbc="F F F"
Ar       0.00000000       0.00000000       0.00000000       0.00000000       0.00000000       0.00737796
Ar       0.00000000       0.00000000       4.39090909       0.00000000       0.00000000      -0.00737796
2
Properties=species:S:1:pos:R:3:forces:R:3 energy=-0.10543800286607029 pbc="F F F"
Ar       0.00000000       0.00000000       0.00000000       0.00000000       0.00000000       0.00718438
Ar       0.00000000       0.00000000       4.45050505       0.00000000       0.00000000      -0.00718438
2
Properties=species:S:1:pos:R:3:forces:R:3 energy=-0.10501597455237609 pbc="F F F"
Ar       0.00000000       0.00000000       0.00000000       0.00000000       0.00000000       0.00697657
Ar       0.00000000       0.00000000       4.51010101       0.00000000       0.00000000      -0.00697657
2
Properties=species:S:1:pos:R:3:forces:R:3 energy=-0.10460675164515981 pbc="F F F"
Ar       0.00000000       0.00000000       0.00000000       0.00000000       0.00000000       0.00675400
Ar       0.00000000       0.00000000       4.56969697       0.00000000       0.00000000      -0.00675400
2
Properties=species:S:1:pos:R:3:forces:R:3 energy=-0.10421124122221831 pbc="F F F"
Ar       0.00000000       0.00000000       0.00000000       0.00000000       0.00000000       0.00651667
Ar       0.00000000       0.00000000       4.62929293       0.00000000       0.00000000      -0.00651667
2
Properties=species:S:1:pos:R:3:forces:R:3 energy=-0.103830297946289 pbc="F F F"
Ar       0.00000000       0.00000000       0.00000000       0.00000000       0.00000000       0.00626530
Ar       0.00000000       0.00000000       4.68888889       0.00000000       0.00000000      -0.00626530
2
Properties=species:S:1:pos:R:3:forces:R:3 energy=-0.10346472093923191 pbc="F F F"
Ar       0.00000000       0.00000000       0.00000000       0.00000000       0.00000000       0.00600113
Ar       0.00000000       0.00000000       4.74848485       0.00000000       0.00000000      -0.00600113
2
Properties=species:S:1:pos:R:3:forces:R:3 energy=-0.10311523967282413 pbc="F F F"
Ar       0.00000000       0.00000000       0.00000000       0.00000000       0.00000000       0.00572535
Ar       0.00000000       0.00000000       4.80808081       0.00000000       0.00000000      -0.00572535
2
Properties=species:S:1:pos:R:3:forces:R:3 energy=-0.10278252574410301 pbc="F F F"
Ar       0.00000000       0.00000000       0.00000000       0.00000000       0.00000000       0.00543847
Ar       0.00000000       0.00000000       4.86767677       0.00000000       0.00000000      -0.00543847
2
Properties=species:S:1:pos:R:3:forces:R:3 energy=-0.10246725129207773 pbc="F F F"
Ar       0.00000000       0.00000000       0.00000000       0.00000000       0.00000000       0.00513968
Ar       0.00000000       0.00000000       4.92727273       0.00000000       0.00000000      -0.00513968
2
Properties=species:S:1:pos:R:3:forces:R:3 energy=-0.10217018988805164 pbc="F F F"
Ar       0.00000000       0.00000000       0.00000000       0.00000000       0.00000000       0.00482703
Ar       0.00000000       0.00000000       4.98686869       0.00000000       0.00000000      -0.00482703
2
Properties=species:S:1:pos:R:3:forces:R:3 energy=-0.1018922221523081 pbc="F F F"
Ar       0.00000000       0.00000000       0.00000000       0.00000000       0.00000000       0.00449932
Ar       0.00000000       0.00000000       5.04646465       0.00000000       0.00000000      -0.00449932
2
Properties=species:S:1:pos:R:3:forces:R:3 energy=-0.10163413629733734 pbc="F F F"
Ar       0.00000000       0.00000000       0.00000000       0.00000000       0.00000000       0.00416088
Ar       0.00000000       0.00000000       5.10606061       0.00000000       0.00000000      -0.00416088
2
Properties=species:S:1:pos:R:3:forces:R:3 energy=-0.10139615460449429 pbc="F F F"
Ar       0.00000000       0.00000000       0.00000000       0.00000000       0.00000000       0.00382842
Ar       0.00000000       0.00000000       5.16565657       0.00000000       0.00000000      -0.00382842
2
Properties=species:S:1:pos:R:3:forces:R:3 energy=-0.10117709928195263 pbc="F F F"
Ar       0.00000000       0.00000000       0.00000000       0.00000000       0.00000000       0.00353169
Ar       0.00000000       0.00000000       5.22525253       0.00000000       0.00000000      -0.00353169
2
Properties=species:S:1:pos:R:3:forces:R:3 energy=-0.10097405679260009 pbc="F F F"
Ar       0.00000000       0.00000000       0.00000000       0.00000000       0.00000000       0.00329151
Ar       0.00000000       0.00000000       5.28484848       0.00000000       0.00000000      -0.00329151
2
Properties=species:S:1:pos:R:3:forces:R:3 energy=-0.10078406960480872 pbc="F F F"
Ar       0.00000000       0.00000000       0.00000000       0.00000000       0.00000000       0.00308559
Ar       0.00000000       0.00000000       5.34444444       0.00000000       0.00000000      -0.00308559
2
Properties=species:S:1:pos:R:3:forces:R:3 energy=-0.10060667478753262 pbc="F F F"
Ar       0.00000000       0.00000000       0.00000000       0.00000000       0.00000000       0.00286124
Ar       0.00000000       0.00000000       5.40404040       0.00000000       0.00000000      -0.00286124
2
Properties=species:S:1:pos:R:3:forces:R:3 energy=-0.10044376739899867 pbc="F F F"
Ar       0.00000000       0.00000000       0.00000000       0.00000000       0.00000000       0.00260195
Ar       0.00000000       0.00000000       5.46363636       0.00000000       0.00000000      -0.00260195
2
Properties=species:S:1:pos:R:3:forces:R:3 energy=-0.10029634757881642 pbc="F F F"
Ar       0.00000000       0.00000000       0.00000000       0.00000000       0.00000000       0.00235349
Ar       0.00000000       0.00000000       5.52323232       0.00000000       0.00000000      -0.00235349
2
Properties=species:S:1:pos:R:3:forces:R:3 energy=-0.10016179383346849 pbc="F F F"
Ar       0.00000000       0.00000000       0.00000000       0.00000000       0.00000000       0.00217726
Ar       0.00000000       0.00000000       5.58282828       0.00000000       0.00000000      -0.00217726
2
Properties=species:S:1:pos:R:3:forces:R:3 energy=-0.10003521161739601 pbc="F F F"
Ar       0.00000000       0.00000000       0.00000000       0.00000000       0.00000000       0.00207973
Ar       0.00000000       0.00000000       5.64242424       0.00000000       0.00000000      -0.00207973
2
Properties=species:S:1:pos:R:3:forces:R:3 energy=-0.0999137890258116 pbc="F F F"
Ar       0.00000000       0.00000000       0.00000000       0.00000000       0.00000000       0.00198686
Ar       0.00000000       0.00000000       5.70202020       0.00000000       0.00000000      -0.00198686
2
Properties=species:S:1:pos:R:3:forces:R:3 energy=-0.09980000294622011 pbc="F F F"
Ar       0.00000000       0.00000000       0.00000000       0.00000000       0.00000000       0.00181741
Ar       0.00000000       0.00000000       5.76161616       0.00000000       0.00000000      -0.00181741
2
Properties=species:S:1:pos:R:3:forces:R:3 energy=-0.09969878318505294 pbc="F F F"
Ar       0.00000000       0.00000000       0.00000000       0.00000000       0.00000000       0.00156980
Ar       0.00000000       0.00000000       5.82121212       0.00000000       0.00000000      -0.00156980
2
Properties=species:S:1:pos:R:3:forces:R:3 energy=-0.09961325291344442 pbc="F F F"
Ar       0.00000000       0.00000000       0.00000000       0.00000000       0.00000000       0.00130609
Ar       0.00000000       0.00000000       5.88080808       0.00000000       0.00000000      -0.00130609
2
Properties=species:S:1:pos:R:3:forces:R:3 energy=-0.0995420183647974 pbc="F F F"
Ar       0.00000000       0.00000000       0.00000000       0.00000000       0.00000000       0.00109432
Ar       0.00000000       0.00000000       5.94040404       0.00000000       0.00000000      -0.00109432
2
Properties=species:S:1:pos:R:3:forces:R:3 energy=-0.09948092021619577 pbc="F F F"
Ar       0.00000000       0.00000000       0.00000000       0.00000000       0.00000000       0.00097438
Ar       0.00000000       0.00000000       6.00000000       0.00000000       0.00000000      -0.00097438
