2
Properties=species:S:1:pos:R:3:forces:R:3 energy=16206.538261175734 pbc="F F F"
Au       0.00000000       0.00000000       0.00000000       0.00000000       0.00000000 -285769.12500000
Au       0.00000000       0.00000000       0.18000000       0.00000000       0.00000000  285769.12500000
2
Properties=species:S:1:pos:R:3:forces:R:3 energy=6253.930351019485 pbc="F F F"
Au       0.00000000       0.00000000       0.00000000       0.00000000       0.00000000  -93704.98437500
Au       0.00000000       0.00000000       0.23878788       0.00000000       0.00000000   93704.98437500
2
Properties=species:S:1:pos:R:3:forces:R:3 energy=2738.28850531636 pbc="F F F"
Au       0.00000000       0.00000000       0.00000000       0.00000000       0.00000000  -36129.59375000
Au       0.00000000       0.00000000       0.29757576       0.00000000       0.00000000   36129.59375000
2
Properties=species:S:1:pos:R:3:forces:R:3 energy=1318.6239545414455 pbc="F F F"
Au       0.00000000       0.00000000       0.00000000       0.00000000       0.00000000  -15408.48144531
Au       0.00000000       0.00000000       0.35636364       0.00000000       0.00000000   15408.48144531
2
Properties=species:S:1:pos:R:3:forces:R:3 energy=692.8873212469999 pbc="F F F"
Au       0.00000000       0.00000000       0.00000000       0.00000000       0.00000000   -7065.17041016
Au       0.00000000       0.00000000       0.41515152       0.00000000       0.00000000    7065.17041016
2
Properties=species:S:1:pos:R:3:forces:R:3 energy=398.3914716502962 pbc="F F F"
Au       0.00000000       0.00000000       0.00000000       0.00000000       0.00000000   -3430.19140625
Au       0.00000000       0.00000000       0.47393939       0.00000000       0.00000000    3430.19140625
2
Properties=species:S:1:pos:R:3:forces:R:3 energy=252.40529613852937 pbc="F F F"
Au       0.00000000       0.00000000       0.00000000       0.00000000       0.00000000   -1741.28051758
Au       0.00000000       0.00000000       0.53272727       0.00000000       0.00000000    1741.28051758
2
Properties=species:S:1:pos:R:3:forces:R:3 energy=177.230232092797 pbc="F F F"
Au       0.00000000       0.00000000       0.00000000       0.00000000       0.00000000    -909.64312744
Au       0.00000000       0.00000000       0.59151515       0.00000000       0.00000000     909.64312744
2
Properties=species:S:1:pos:R:3:forces:R:3 energy=137.75986473401628 pbc="F F F"
Au       0.00000000       0.00000000       0.00000000       0.00000000       0.00000000    -478.36798096
Au       0.00000000       0.00000000       0.65030303       0.00000000       0.00000000     478.36798096
2
Properties=species:S:1:pos:R:3:forces:R:3 energy=117.14963535587037 pbc="F F F"
Au       0.00000000       0.00000000       0.00000000       0.00000000       0.00000000    -246.11357117
Au       0.00000000       0.00000000       0.70909091       0.00000000       0.00000000     246.11357117
2
Properties=species:S:1:pos:R:3:forces:R:3 energy=106.80677054303405 pbc="F F F"
Au       0.00000000       0.00000000       0.00000000       0.00000000       0.00000000    -118.04295349
Au       0.00000000       0.00000000       0.76787879       0.00000000       0.00000000     118.04295349
2
Properties=species:S:1:pos:R:3:forces:R:3 energy=102.22083329645982 pbc="F F F"
Au       0.00000000       0.00000000       0.00000000       0.00000000       0.00000000     -44.81510544
Au       0.00000000       0.00000000       0.82666667       0.00000000       0.00000000      44.81510544
2
Properties=species:S:1:pos:R:3:forces:R:3 energy=100.65891349791156 pbc="F F F"
Au       0.00000000       0.00000000       0.00000000       0.00000000       0.00000000     -17.72967529
Au       0.00000000       0.00000000       0.88545455       0.00000000       0.00000000      17.72967529
2
Properties=species:S:1:pos:R:3:forces:R:3 energy=98.93186322984874 pbc="F F F"
Au       0.00000000       0.00000000       0.00000000       0.00000000       0.00000000     -50.09505844
Au       0.00000000       0.00000000       0.94424242       0.00000000       0.00000000      50.09505844
2
Properties=species:S:1:pos:R:3:forces:R:3 energy=94.0590612050659 pbc="F F F"
Au       0.00000000       0.00000000       0.00000000       0.00000000       0.00000000    -118.60710144
Au       0.00000000       0.00000000       1.00303030       0.00000000       0.00000000     118.60710144
2
Properties=species:S:1:pos:R:3:forces:R:3 energy=84.92648616664302 pbc="F F F"
Au       0.00000000       0.00000000       0.00000000       0.00000000       0.00000000    -190.78308105
Au       0.00000000       0.00000000       1.06181818       0.00000000       0.00000000     190.78308105
2
Properties=species:S:1:pos:R:3:forces:R:3 energy=72.07536744182251 pbc="F F F"
Au       0.00000000       0.00000000       0.00000000       0.00000000       0.00000000    -236.93630981
Au       0.00000000       0.00000000       1.12060606       0.00000000       0.00000000     236.93630981
2
Properties=species:S:1:pos:R:3:forces:R:3 energy=59.06881163399389 pbc="F F F"
Au       0.00000000       0.00000000       0.00000000       0.00000000       0.00000000    -191.21113586
Au       0.00000000       0.00000000       1.17939394       0.00000000       0.00000000     191.21113586
2
Properties=species:S:1:pos:R:3:forces:R:3 energy=49.71145294193355 pbc="F F F"
Au       0.00000000       0.00000000       0.00000000       0.00000000       0.00000000    -132.00485229
Au       0.00000000       0.00000000       1.23818182       0.00000000       0.00000000     132.00485229
2
Properties=species:S:1:pos:R:3:forces:R:3 energy=43.13223205562286 pbc="F F F"
Au       0.00000000       0.00000000       0.00000000       0.00000000       0.00000000     -94.86651611
Au       0.00000000       0.00000000       1.29696970       0.00000000       0.00000000      94.86651611
2
Properties=species:S:1:pos:R:3:forces:R:3 energy=38.16119289449929 pbc="F F F"
Au       0.00000000       0.00000000       0.00000000       0.00000000       0.00000000     -77.51207733
Au       0.00000000       0.00000000       1.35575758       0.00000000       0.00000000      77.51207733
2
Properties=species:S:1:pos:R:3:forces:R:3 energy=33.740005074729645 pbc="F F F"
Au       0.00000000       0.00000000       0.00000000       0.00000000       0.00000000     -74.21405792
Au       0.00000000       0.00000000       1.41454545       0.00000000       0.00000000      74.21405792
2
Properties=species:S:1:pos:R:3:forces:R:3 energy=29.367110469878956 pbc="F F F"
Au       0.00000000       0.00000000       0.00000000       0.00000000       0.00000000     -74.71061707
Au       0.00000000       0.00000000       1.47333333       0.00000000       0.00000000      74.71061707
2
Properties=species:S:1:pos:R:3:forces:R:3 energy=24.962658132175143 pbc="F F F"
Au       0.00000000       0.00000000       0.00000000       0.00000000       0.00000000     -74.87942505
Au       0.00000000       0.00000000       1.53212121       0.00000000       0.00000000      74.87942505
2
Properties=species:S:1:pos:R:3:forces:R:3 energy=20.609612230015028 pbc="F F F"
Au       0.00000000       0.00000000       0.00000000       0.00000000       0.00000000     -72.72572327
Au       0.00000000       0.00000000       1.59090909       0.00000000       0.00000000      72.72572327
2
Properties=species:S:1:pos:R:3:forces:R:3 energy=16.472878571255723 pbc="F F F"
Au       0.00000000       0.00000000       0.00000000       0.00000000       0.00000000     -67.50102997
Au       0.00000000       0.00000000       1.64969697       0.00000000       0.00000000      67.50102997
2
Properties=species:S:1:pos:R:3:forces:R:3 energy=12.724211349705623 pbc="F F F"
Au       0.00000000       0.00000000       0.00000000       0.00000000       0.00000000     -59.70293045
Au       0.00000000       0.00000000       1.70848485       0.00000000       0.00000000      59.70293045
2
Properties=species:S:1:pos:R:3:forces:R:3 energy=9.476727155993665 pbc="F F F"
Au       0.00000000       0.00000000       0.00000000       0.00000000       0.00000000     -50.70313263
Au       0.00000000       0.00000000       1.76727273       0.00000000       0.00000000      50.70313263
2
Properties=species:S:1:pos:R:3:forces:R:3 energy=6.759769015290052 pbc="F F F"
Au       0.00000000       0.00000000       0.00000000       0.00000000       0.00000000     -41.83385086
Au       0.00000000       0.00000000       1.82606061       0.00000000       0.00000000      41.83385086
2
Properties=species:S:1:pos:R:3:forces:R:3 energy=4.5403397407303165 pbc="F F F"
Au       0.00000000       0.00000000       0.00000000       0.00000000       0.00000000     -33.85178757
Au       0.00000000       0.00000000       1.88484848       0.00000000       0.00000000      33.85178757
2
Properties=species:S:1:pos:R:3:forces:R:3 energy=2.757654043407163 pbc="F F F"
Au       0.00000000       0.00000000       0.00000000       0.00000000       0.00000000     -26.98146057
Au       0.00000000       0.00000000       1.94363636       0.00000000       0.00000000      26.98146057
2
Properties=species:S:1:pos:R:3:forces:R:3 energy=1.3472066019948659 pbc="F F F"
Au       0.00000000       0.00000000       0.00000000       0.00000000       0.00000000     -21.16903305
Au       0.00000000       0.00000000       2.00242424       0.00000000       0.00000000      21.16903305
2
Properties=species:S:1:pos:R:3:forces:R:3 energy=0.25032537658855214 pbc="F F F"
Au       0.00000000       0.00000000       0.00000000       0.00000000       0.00000000     -16.29492378
Au       0.00000000       0.00000000       2.06121212       0.00000000       0.00000000      16.29492378
2
Properties=species:S:1:pos:R:3:forces:R:3 energy=-0.5851422105378318 pbc="F F F"
Au       0.00000000       0.00000000       0.00000000       0.00000000       0.00000000     -12.26160431
Au       0.00000000       0.00000000       2.12000000       0.00000000       0.00000000      12.26160431
2
Properties=species:S:1:pos:R:3:forces:R:3 energy=-1.206299325876394 pbc="F F F"
Au       0.00000000       0.00000000       0.00000000       0.00000000       0.00000000      -8.99102688
Au       0.00000000       0.00000000       2.17878788       0.00000000       0.00000000       8.99102688
2
Properties=species:S:1:pos:R:3:forces:R:3 energy=-1.6555697261454378 pbc="F F F"
Au       0.00000000       0.00000000       0.00000000       0.00000000       0.00000000      -6.39841557
Au       0.00000000       0.00000000       2.23757576       0.00000000       0.00000000       6.39841557
2
Properties=species:S:1:pos:R:3:forces:R:3 energy=-1.9698691054234188 pbc="F F F"
Au       0.00000000       0.00000000       0.00000000       0.00000000       0.00000000      -4.38073492
Au       0.00000000       0.00000000       2.29636364       0.00000000       0.00000000       4.38073492
2
Properties=species:S:1:pos:R:3:forces:R:3 energy=-2.179693201688656 pbc="F F F"
Au       0.00000000       0.00000000       0.00000000       0.00000000       0.00000000      -2.82550454
Au       0.00000000       0.00000000       2.35515152       0.00000000       0.00000000       2.82550454
2
Properties=species:S:1:pos:R:3:forces:R:3 energy=-2.309104627944634 pbc="F F F"
Au       0.00000000       0.00000000       0.00000000       0.00000000       0.00000000      -1.62960565
Au       0.00000000       0.00000000       2.41393939       0.00000000       0.00000000       1.62960565
2
Properties=species:S:1:pos:R:3:forces:R:3 energy=-2.3767810268180005 pbc="F F F"
Au       0.00000000       0.00000000       0.00000000       0.00000000       0.00000000      -0.71461153
Au       0.00000000       0.00000000       2.47272727       0.00000000       0.00000000       0.71461153
2
Properties=species:S:1:pos:R:3:forces:R:3 energy=-2.3976134753982756 pbc="F F F"
Au       0.00000000       0.00000000       0.00000000       0.00000000       0.00000000      -0.02927062
Au       0.00000000       0.00000000       2.53151515       0.00000000       0.00000000       0.02927062
2
Properties=species:S:1:pos:R:3:forces:R:3 energy=-2.3840604278386905 pbc="F F F"
Au       0.00000000       0.00000000       0.00000000       0.00000000       0.00000000       0.46007881
Au       0.00000000       0.00000000       2.59030303       0.00000000       0.00000000      -0.46007881
2
Properties=species:S:1:pos:R:3:forces:R:3 energy=-2.3467889407968796 pbc="F F F"
Au       0.00000000       0.00000000       0.00000000       0.00000000       0.00000000       0.78278005
Au       0.00000000       0.00000000       2.64909091       0.00000000       0.00000000      -0.78278005
2
Properties=species:S:1:pos:R:3:forces:R:3 energy=-2.2946404335385493 pbc="F F F"
Au       0.00000000       0.00000000       0.00000000       0.00000000       0.00000000       0.97217423
Au       0.00000000       0.00000000       2.70787879       0.00000000       0.00000000      -0.97217423
2
Properties=species:S:1:pos:R:3:forces:R:3 energy=-2.2343600728671826 pbc="F F F"
Au       0.00000000       0.00000000       0.00000000       0.00000000       0.00000000       1.06584549
Au       0.00000000       0.00000000       2.76666667       0.00000000       0.00000000      -1.06584549
2
Properties=species:S:1:pos:R:3:forces:R:3 energy=-2.1704707924402102 pbc="F F F"
Au       0.00000000       0.00000000       0.00000000       0.00000000       0.00000000       1.10072482
Au       0.00000000       0.00000000       2.82545455       0.00000000       0.00000000      -1.10072482
2
Properties=species:S:1:pos:R:3:forces:R:3 energy=-2.105482465890352 pbc="F F F"
Au       0.00000000       0.00000000       0.00000000       0.00000000       0.00000000       1.10767913
Au       0.00000000       0.00000000       2.88424242       0.00000000       0.00000000      -1.10767913
2
Properties=species:S:1:pos:R:3:forces:R:3 energy=-2.0403502864283034 pbc="F F F"
Au       0.00000000       0.00000000       0.00000000       0.00000000       0.00000000       1.10841632
Au       0.00000000       0.00000000       2.94303030       0.00000000       0.00000000      -1.10841632
2
Properties=species:S:1:pos:R:3:forces:R:3 energy=-1.9750445694498207 pbc="F F F"
Au       0.00000000       0.00000000       0.00000000       0.00000000       0.00000000       1.11468840
Au       0.00000000       0.00000000       3.00181818       0.00000000       0.00000000      -1.11468840
2
Properties=species:S:1:pos:R:3:forces:R:3 energy=-1.9091356858783444 pbc="F F F"
Au       0.00000000       0.00000000       0.00000000       0.00000000       0.00000000       1.12855268
Au       0.00000000       0.00000000       3.06060606       0.00000000       0.00000000      -1.12855268
2
Properties=species:S:1:pos:R:3:forces:R:3 energy=-1.842313292401479 pbc="F F F"
Au       0.00000000       0.00000000       0.00000000       0.00000000       0.00000000       1.14441371
Au       0.00000000       0.00000000       3.11939394       0.00000000       0.00000000      -1.14441371
2
Properties=species:S:1:pos:R:3:forces:R:3 energy=-1.7747081736837664 pbc="F F F"
Au       0.00000000       0.00000000       0.00000000       0.00000000       0.00000000       1.15378892
Au       0.00000000       0.00000000       3.17818182       0.00000000       0.00000000      -1.15378892
2
Properties=species:S:1:pos:R:3:forces:R:3 energy=-1.7069225203092793 pbc="F F F"
Au       0.00000000       0.00000000       0.00000000       0.00000000       0.00000000       1.14967978
Au       0.00000000       0.00000000       3.23696970       0.00000000       0.00000000      -1.14967978
2
Properties=species:S:1:pos:R:3:forces:R:3 energy=-1.6398744409207615 pbc="F F F"
Au       0.00000000       0.00000000       0.00000000       0.00000000       0.00000000       1.12834072
Au       0.00000000       0.00000000       3.29575758       0.00000000       0.00000000      -1.12834072
2
Properties=species:S:1:pos:R:3:forces:R:3 energy=-1.5746055799581573 pbc="F F F"
Au       0.00000000       0.00000000       0.00000000       0.00000000       0.00000000       1.08930469
Au       0.00000000       0.00000000       3.35454545       0.00000000       0.00000000      -1.08930469
2
Properties=species:S:1:pos:R:3:forces:R:3 energy=-1.5121041807061624 pbc="F F F"
Au       0.00000000       0.00000000       0.00000000       0.00000000       0.00000000       1.03472388
Au       0.00000000       0.00000000       3.41333333       0.00000000       0.00000000      -1.03472388
2
Properties=species:S:1:pos:R:3:forces:R:3 energy=-1.4531759911534423 pbc="F F F"
Au       0.00000000       0.00000000       0.00000000       0.00000000       0.00000000       0.96848798
Au       0.00000000       0.00000000       3.47212121       0.00000000       0.00000000      -0.96848798
2
Properties=species:S:1:pos:R:3:forces:R:3 energy=-1.3983692741982767 pbc="F F F"
Au       0.00000000       0.00000000       0.00000000       0.00000000       0.00000000       0.89532846
Au       0.00000000       0.00000000       3.53090909       0.00000000       0.00000000      -0.89532846
2
Properties=species:S:1:pos:R:3:forces:R:3 energy=-1.3479484577400949 pbc="F F F"
Au       0.00000000       0.00000000       0.00000000       0.00000000       0.00000000       0.82002163
Au       0.00000000       0.00000000       3.58969697       0.00000000       0.00000000      -0.82002163
2
Properties=species:S:1:pos:R:3:forces:R:3 energy=-1.301913227012886 pbc="F F F"
Au       0.00000000       0.00000000       0.00000000       0.00000000       0.00000000       0.74676514
Au       0.00000000       0.00000000       3.64848485       0.00000000       0.00000000      -0.74676514
2
Properties=species:S:1:pos:R:3:forces:R:3 energy=-1.26004382795512 pbc="F F F"
Au       0.00000000       0.00000000       0.00000000       0.00000000       0.00000000       0.67875594
Au       0.00000000       0.00000000       3.70727273       0.00000000       0.00000000      -0.67875594
2
Properties=species:S:1:pos:R:3:forces:R:3 energy=-1.221964611264804 pbc="F F F"
Au       0.00000000       0.00000000       0.00000000       0.00000000       0.00000000       0.61802834
Au       0.00000000       0.00000000       3.76606061       0.00000000       0.00000000      -0.61802834
2
Properties=species:S:1:pos:R:3:forces:R:3 energy=-1.1872171607150341 pbc="F F F"
Au       0.00000000       0.00000000       0.00000000       0.00000000       0.00000000       0.56549126
Au       0.00000000       0.00000000       3.82484848       0.00000000       0.00000000      -0.56549126
2
Properties=species:S:1:pos:R:3:forces:R:3 energy=-1.1553163785408853 pbc="F F F"
Au       0.00000000       0.00000000       0.00000000       0.00000000       0.00000000       0.52110529
Au       0.00000000       0.00000000       3.88363636       0.00000000       0.00000000      -0.52110529
2
Properties=species:S:1:pos:R:3:forces:R:3 energy=-1.1258018816502688 pbc="F F F"
Au       0.00000000       0.00000000       0.00000000       0.00000000       0.00000000       0.48414823
Au       0.00000000       0.00000000       3.94242424       0.00000000       0.00000000      -0.48414823
2
Properties=species:S:1:pos:R:3:forces:R:3 energy=-1.098268673257391 pbc="F F F"
Au       0.00000000       0.00000000       0.00000000       0.00000000       0.00000000       0.45350903
Au       0.00000000       0.00000000       4.00121212       0.00000000       0.00000000      -0.45350903
2
Properties=species:S:1:pos:R:3:forces:R:3 energy=-1.0723813592984792 pbc="F F F"
Au       0.00000000       0.00000000       0.00000000       0.00000000       0.00000000       0.42794117
Au       0.00000000       0.00000000       4.06000000       0.00000000       0.00000000      -0.42794117
2
Properties=species:S:1:pos:R:3:forces:R:3 energy=-1.0478766529948145 pbc="F F F"
Au       0.00000000       0.00000000       0.00000000       0.00000000       0.00000000       0.40628007
Au       0.00000000       0.00000000       4.11878788       0.00000000       0.00000000      -0.40628007
2
Properties=species:S:1:pos:R:3:forces:R:3 energy=-1.0245546333927764 pbc="F F F"
Au       0.00000000       0.00000000       0.00000000       0.00000000       0.00000000       0.38757709
Au       0.00000000       0.00000000       4.17757576       0.00000000       0.00000000      -0.38757709
2
Properties=species:S:1:pos:R:3:forces:R:3 energy=-1.002261730113659 pbc="F F F"
Au       0.00000000       0.00000000       0.00000000       0.00000000       0.00000000       0.37117082
Au       0.00000000       0.00000000       4.23636364       0.00000000       0.00000000      -0.37117082
2
Properties=species:S:1:pos:R:3:forces:R:3 energy=-0.9808756796404794 pbc="F F F"
Au       0.00000000       0.00000000       0.00000000       0.00000000       0.00000000       0.35670081
Au       0.00000000       0.00000000       4.29515152       0.00000000       0.00000000      -0.35670081
2
Properties=species:S:1:pos:R:3:forces:R:3 energy=-0.960286834802097 pbc="F F F"
Au       0.00000000       0.00000000       0.00000000       0.00000000       0.00000000       0.34407708
Au       0.00000000       0.00000000       4.35393939       0.00000000       0.00000000      -0.34407708
2
Properties=species:S:1:pos:R:3:forces:R:3 energy=-0.9403828319562884 pbc="F F F"
Au       0.00000000       0.00000000       0.00000000       0.00000000       0.00000000       0.33341169
Au       0.00000000       0.00000000       4.41272727       0.00000000       0.00000000      -0.33341169
2
Properties=species:S:1:pos:R:3:forces:R:3 energy=-0.921042474886026 pbc="F F F"
Au       0.00000000       0.00000000       0.00000000       0.00000000       0.00000000       0.32493779
Au       0.00000000       0.00000000       4.47151515       0.00000000       0.00000000      -0.32493779
2
Properties=species:S:1:pos:R:3:forces:R:3 energy=-0.90212993989367 pbc="F F F"
Au       0.00000000       0.00000000       0.00000000       0.00000000       0.00000000       0.31889614
Au       0.00000000       0.00000000       4.53030303       0.00000000       0.00000000      -0.31889614
2
Properties=species:S:1:pos:R:3:forces:R:3 energy=-0.8834977285227428 pbc="F F F"
Au       0.00000000       0.00000000       0.00000000       0.00000000       0.00000000       0.31542248
Au       0.00000000       0.00000000       4.58909091       0.00000000       0.00000000      -0.31542248
2
Properties=species:S:1:pos:R:3:forces:R:3 energy=-0.8649956872821826 pbc="F F F"
Au       0.00000000       0.00000000       0.00000000       0.00000000       0.00000000       0.31442738
Au       0.00000000       0.00000000       4.64787879       0.00000000       0.00000000      -0.31442738
2
Properties=species:S:1:pos:R:3:forces:R:3 energy=-0.8464875038777456 pbc="F F F"
Au       0.00000000       0.00000000       0.00000000       0.00000000       0.00000000       0.31549901
Au       0.00000000       0.00000000       4.70666667       0.00000000       0.00000000      -0.31549901
2
Properties=species:S:1:pos:R:3:forces:R:3 energy=-0.827875302755479 pbc="F F F"
Au       0.00000000       0.00000000       0.00000000       0.00000000       0.00000000       0.31784028
Au       0.00000000       0.00000000       4.76545455       0.00000000       0.00000000      -0.31784028
2
Properties=species:S:1:pos:R:3:forces:R:3 energy=-0.8091150025092286 pbc="F F F"
Au       0.00000000       0.00000000       0.00000000       0.00000000       0.00000000       0.32027921
Au       0.00000000       0.00000000       4.82424242       0.00000000       0.00000000      -0.32027921
2
Properties=species:S:1:pos:R:3:forces:R:3 energy=-0.7902455142370236 pbc="F F F"
Au       0.00000000       0.00000000       0.00000000       0.00000000       0.00000000       0.32137334
Au       0.00000000       0.00000000       4.88303030       0.00000000       0.00000000      -0.32137334
2
Properties=species:S:1:pos:R:3:forces:R:3 energy=-0.7713850048714125 pbc="F F F"
Au       0.00000000       0.00000000       0.00000000       0.00000000       0.00000000       0.31964538
Au       0.00000000       0.00000000       4.94181818       0.00000000       0.00000000      -0.31964538
2
Properties=species:S:1:pos:R:3:forces:R:3 energy=-0.7527402113431589 pbc="F F F"
Au       0.00000000       0.00000000       0.00000000       0.00000000       0.00000000       0.31389821
Au       0.00000000       0.00000000       5.00060606       0.00000000       0.00000000      -0.31389821
2
Properties=species:S:1:pos:R:3:forces:R:3 energy=-0.7345650597026327 pbc="F F F"
Au       0.00000000       0.00000000       0.00000000       0.00000000       0.00000000       0.30371466
Au       0.00000000       0.00000000       5.05939394       0.00000000       0.00000000      -0.30371466
2
Properties=species:S:1:pos:R:3:forces:R:3 energy=-0.7171012202820362 pbc="F F F"
Au       0.00000000       0.00000000       0.00000000       0.00000000       0.00000000       0.28998974
Au       0.00000000       0.00000000       5.11818182       0.00000000       0.00000000      -0.28998974
2
Properties=species:S:1:pos:R:3:forces:R:3 energy=-0.7004929675040629 pbc="F F F"
Au       0.00000000       0.00000000       0.00000000       0.00000000       0.00000000       0.27513728
Au       0.00000000       0.00000000       5.17696970       0.00000000       0.00000000      -0.27513728
2
Properties=species:S:1:pos:R:3:forces:R:3 energy=-0.6847217735797125 pbc="F F F"
Au       0.00000000       0.00000000       0.00000000       0.00000000       0.00000000       0.26180884
Au       0.00000000       0.00000000       5.23575758       0.00000000       0.00000000      -0.26180884
2
Properties=species:S:1:pos:R:3:forces:R:3 energy=-0.6696836616659845 pbc="F F F"
Au       0.00000000       0.00000000       0.00000000       0.00000000       0.00000000       0.24972965
Au       0.00000000       0.00000000       5.29454545       0.00000000       0.00000000      -0.24972965
2
Properties=species:S:1:pos:R:3:forces:R:3 energy=-0.6554275218667567 pbc="F F F"
Au       0.00000000       0.00000000       0.00000000       0.00000000       0.00000000       0.23412097
Au       0.00000000       0.00000000       5.35333333       0.00000000       0.00000000      -0.23412097
2
Properties=species:S:1:pos:R:3:forces:R:3 energy=-0.6423223927522912 pbc="F F F"
Au       0.00000000       0.00000000       0.00000000       0.00000000       0.00000000       0.21020734
Au       0.00000000       0.00000000       5.41212121       0.00000000       0.00000000      -0.21020734
2
Properties=species:S:1:pos:R:3:forces:R:3 energy=-0.6308456270356787 pbc="F F F"
Au       0.00000000       0.00000000       0.00000000       0.00000000       0.00000000       0.17971964
Au       0.00000000       0.00000000       5.47090909       0.00000000       0.00000000      -0.17971964
2
Properties=species:S:1:pos:R:3:forces:R:3 energy=-0.621161014648851 pbc="F F F"
Au       0.00000000       0.00000000       0.00000000       0.00000000       0.00000000       0.15080647
Au       0.00000000       0.00000000       5.52969697       0.00000000       0.00000000      -0.15080647
2
Properties=species:S:1:pos:R:3:forces:R:3 energy=-0.6129177107251976 pbc="F F F"
Au       0.00000000       0.00000000       0.00000000       0.00000000       0.00000000       0.13165407
Au       0.00000000       0.00000000       5.58848485       0.00000000       0.00000000      -0.13165407
2
Properties=species:S:1:pos:R:3:forces:R:3 energy=-0.6054726767580654 pbc="F F F"
Au       0.00000000       0.00000000       0.00000000       0.00000000       0.00000000       0.12281884
Au       0.00000000       0.00000000       5.64727273       0.00000000       0.00000000      -0.12281884
2
Properties=species:S:1:pos:R:3:forces:R:3 energy=-0.5984581590006433 pbc="F F F"
Au       0.00000000       0.00000000       0.00000000       0.00000000       0.00000000       0.11504350
Au       0.00000000       0.00000000       5.70606061       0.00000000       0.00000000      -0.11504350
2
Properties=species:S:1:pos:R:3:forces:R:3 energy=-0.5921299391904726 pbc="F F F"
Au       0.00000000       0.00000000       0.00000000       0.00000000       0.00000000       0.09778487
Au       0.00000000       0.00000000       5.76484848       0.00000000       0.00000000      -0.09778487
2
Properties=species:S:1:pos:R:3:forces:R:3 energy=-0.587182246872285 pbc="F F F"
Au       0.00000000       0.00000000       0.00000000       0.00000000       0.00000000       0.06943734
Au       0.00000000       0.00000000       5.82363636       0.00000000       0.00000000      -0.06943734
2
Properties=species:S:1:pos:R:3:forces:R:3 energy=-0.5840363979694757 pbc="F F F"
Au       0.00000000       0.00000000       0.00000000       0.00000000       0.00000000       0.03826363
Au       0.00000000       0.00000000       5.88242424       0.00000000       0.00000000      -0.03826363
2
Properties=species:S:1:pos:R:3:forces:R:3 energy=-0.5825313825093393 pbc="F F F"
Au       0.00000000       0.00000000       0.00000000       0.00000000       0.00000000       0.01471593
Au       0.00000000       0.00000000       5.94121212       0.00000000       0.00000000      -0.01471593
2
Properties=species:S:1:pos:R:3:forces:R:3 energy=-0.5820113709732232 pbc="F F F"
Au       0.00000000       0.00000000       0.00000000       0.00000000       0.00000000       0.00582827
Au       0.00000000       0.00000000       6.00000000       0.00000000       0.00000000      -0.00582827
