2
Properties=species:S:1:pos:R:3:forces:R:3 energy=86097.69353461324 pbc="F F F"
Au       0.00000000       0.00000000       0.00000000       0.00000000       0.00000000 -2187291.25000000
Au       0.00000000       0.00000000       0.10000000       0.00000000       0.00000000 2187291.25000000
2
Properties=species:S:1:pos:R:3:forces:R:3 energy=23529.617362738234 pbc="F F F"
Au       0.00000000       0.00000000       0.00000000       0.00000000       0.00000000 -446174.34375000
Au       0.00000000       0.00000000       0.15959596       0.00000000       0.00000000  446174.34375000
2
Properties=species:S:1:pos:R:3:forces:R:3 energy=8448.038261175734 pbc="F F F"
Au       0.00000000       0.00000000       0.00000000       0.00000000       0.00000000 -132859.37500000
Au       0.00000000       0.00000000       0.21919192       0.00000000       0.00000000  132859.37500000
2
Properties=species:S:1:pos:R:3:forces:R:3 energy=3525.71819281636 pbc="F F F"
Au       0.00000000       0.00000000       0.00000000       0.00000000       0.00000000  -48361.92187500
Au       0.00000000       0.00000000       0.27878788       0.00000000       0.00000000   48361.92187500
2
Properties=species:S:1:pos:R:3:forces:R:3 energy=1633.5195844210903 pbc="F F F"
Au       0.00000000       0.00000000       0.00000000       0.00000000       0.00000000  -19824.86718750
Au       0.00000000       0.00000000       0.33838384       0.00000000       0.00000000   19824.86718750
2
Properties=species:S:1:pos:R:3:forces:R:3 energy=828.6223065953945 pbc="F F F"
Au       0.00000000       0.00000000       0.00000000       0.00000000       0.00000000   -8815.06640625
Au       0.00000000       0.00000000       0.39797980       0.00000000       0.00000000    8815.06640625
2
Properties=species:S:1:pos:R:3:forces:R:3 energy=460.38426949552303 pbc="F F F"
Au       0.00000000       0.00000000       0.00000000       0.00000000       0.00000000   -4173.28125000
Au       0.00000000       0.00000000       0.45757576       0.00000000       0.00000000    4173.28125000
2
Properties=species:S:1:pos:R:3:forces:R:3 energy=282.01424388609996 pbc="F F F"
Au       0.00000000       0.00000000       0.00000000       0.00000000       0.00000000   -2076.08154297
Au       0.00000000       0.00000000       0.51717172       0.00000000       0.00000000    2076.08154297
2
Properties=species:S:1:pos:R:3:forces:R:3 energy=191.78678115555914 pbc="F F F"
Au       0.00000000       0.00000000       0.00000000       0.00000000       0.00000000   -1068.85327148
Au       0.00000000       0.00000000       0.57676768       0.00000000       0.00000000    1068.85327148
2
Properties=species:S:1:pos:R:3:forces:R:3 energy=144.96645346329436 pbc="F F F"
Au       0.00000000       0.00000000       0.00000000       0.00000000       0.00000000    -557.55761719
Au       0.00000000       0.00000000       0.63636364       0.00000000       0.00000000     557.55761719
2
Properties=species:S:1:pos:R:3:forces:R:3 energy=120.64107514669591 pbc="F F F"
Au       0.00000000       0.00000000       0.00000000       0.00000000       0.00000000    -286.55856323
Au       0.00000000       0.00000000       0.69595960       0.00000000       0.00000000     286.55856323
2
Properties=species:S:1:pos:R:3:forces:R:3 energy=108.38906114809859 pbc="F F F"
Au       0.00000000       0.00000000       0.00000000       0.00000000       0.00000000    -139.16975403
Au       0.00000000       0.00000000       0.75555556       0.00000000       0.00000000     139.16975403
2
Properties=species:S:1:pos:R:3:forces:R:3 energy=102.79966014373589 pbc="F F F"
Au       0.00000000       0.00000000       0.00000000       0.00000000       0.00000000     -55.98900223
Au       0.00000000       0.00000000       0.81515152       0.00000000       0.00000000      55.98900223
2
Properties=species:S:1:pos:R:3:forces:R:3 energy=100.84984664942289 pbc="F F F"
Au       0.00000000       0.00000000       0.00000000       0.00000000       0.00000000     -18.26141930
Au       0.00000000       0.00000000       0.87474747       0.00000000       0.00000000      18.26141930
2
Properties=species:S:1:pos:R:3:forces:R:3 energy=99.38228732598219 pbc="F F F"
Au       0.00000000       0.00000000       0.00000000       0.00000000       0.00000000     -41.08839035
Au       0.00000000       0.00000000       0.93434343       0.00000000       0.00000000      41.08839035
2
Properties=species:S:1:pos:R:3:forces:R:3 energy=95.08487132005224 pbc="F F F"
Au       0.00000000       0.00000000       0.00000000       0.00000000       0.00000000    -107.11871338
Au       0.00000000       0.00000000       0.99393939       0.00000000       0.00000000     107.11871338
2
Properties=species:S:1:pos:R:3:forces:R:3 energy=86.46718120501724 pbc="F F F"
Au       0.00000000       0.00000000       0.00000000       0.00000000       0.00000000    -181.21672058
Au       0.00000000       0.00000000       1.05353535       0.00000000       0.00000000     181.21672058
2
Properties=species:S:1:pos:R:3:forces:R:3 energy=73.84050398000664 pbc="F F F"
Au       0.00000000       0.00000000       0.00000000       0.00000000       0.00000000    -235.04992676
Au       0.00000000       0.00000000       1.11313131       0.00000000       0.00000000     235.04992676
2
Properties=species:S:1:pos:R:3:forces:R:3 energy=60.371137627310205 pbc="F F F"
Au       0.00000000       0.00000000       0.00000000       0.00000000       0.00000000    -199.51390076
Au       0.00000000       0.00000000       1.17272727       0.00000000       0.00000000     199.51390076
2
Properties=species:S:1:pos:R:3:forces:R:3 energy=50.49844000586657 pbc="F F F"
Au       0.00000000       0.00000000       0.00000000       0.00000000       0.00000000    -136.69163513
Au       0.00000000       0.00000000       1.23232323       0.00000000       0.00000000     136.69163513
2
Properties=species:S:1:pos:R:3:forces:R:3 energy=43.61746509957838 pbc="F F F"
Au       0.00000000       0.00000000       0.00000000       0.00000000       0.00000000     -97.31029510
Au       0.00000000       0.00000000       1.29191919       0.00000000       0.00000000      97.31029510
2
Properties=species:S:1:pos:R:3:forces:R:3 energy=38.4913508462057 pbc="F F F"
Au       0.00000000       0.00000000       0.00000000       0.00000000       0.00000000     -78.14913940
Au       0.00000000       0.00000000       1.35151515       0.00000000       0.00000000      78.14913940
2
Properties=species:S:1:pos:R:3:forces:R:3 energy=33.99489904621745 pbc="F F F"
Au       0.00000000       0.00000000       0.00000000       0.00000000       0.00000000     -74.23472595
Au       0.00000000       0.00000000       1.41111111       0.00000000       0.00000000      74.23472595
2
Properties=species:S:1:pos:R:3:forces:R:3 energy=29.56330771354752 pbc="F F F"
Au       0.00000000       0.00000000       0.00000000       0.00000000       0.00000000     -74.67738342
Au       0.00000000       0.00000000       1.47070707       0.00000000       0.00000000      74.67738342
2
Properties=species:S:1:pos:R:3:forces:R:3 energy=25.098852136385748 pbc="F F F"
Au       0.00000000       0.00000000       0.00000000       0.00000000       0.00000000     -74.90163422
Au       0.00000000       0.00000000       1.53030303       0.00000000       0.00000000      74.90163422
2
Properties=species:S:1:pos:R:3:forces:R:3 energy=20.68311175118935 pbc="F F F"
Au       0.00000000       0.00000000       0.00000000       0.00000000       0.00000000     -72.78836060
Au       0.00000000       0.00000000       1.58989899       0.00000000       0.00000000      72.78836060
2
Properties=species:S:1:pos:R:3:forces:R:3 energy=16.48649890982877 pbc="F F F"
Au       0.00000000       0.00000000       0.00000000       0.00000000       0.00000000     -67.52401733
Au       0.00000000       0.00000000       1.64949495       0.00000000       0.00000000      67.52401733
2
Properties=species:S:1:pos:R:3:forces:R:3 energy=12.688030032864017 pbc="F F F"
Au       0.00000000       0.00000000       0.00000000       0.00000000       0.00000000     -59.61360550
Au       0.00000000       0.00000000       1.70909091       0.00000000       0.00000000      59.61360550
2
Properties=species:S:1:pos:R:3:forces:R:3 energy=9.405169531139451 pbc="F F F"
Au       0.00000000       0.00000000       0.00000000       0.00000000       0.00000000     -50.48387527
Au       0.00000000       0.00000000       1.76868687       0.00000000       0.00000000      50.48387527
2
Properties=species:S:1:pos:R:3:forces:R:3 energy=6.667155547825232 pbc="F F F"
Au       0.00000000       0.00000000       0.00000000       0.00000000       0.00000000     -41.51319504
Au       0.00000000       0.00000000       1.82828283       0.00000000       0.00000000      41.51319504
2
Properties=species:S:1:pos:R:3:forces:R:3 energy=4.438335412097607 pbc="F F F"
Au       0.00000000       0.00000000       0.00000000       0.00000000       0.00000000     -33.47021866
Au       0.00000000       0.00000000       1.88787879       0.00000000       0.00000000      33.47021866
2
Properties=species:S:1:pos:R:3:forces:R:3 energy=2.6548768266014355 pbc="F F F"
Au       0.00000000       0.00000000       0.00000000       0.00000000       0.00000000     -26.57096100
Au       0.00000000       0.00000000       1.94747475       0.00000000       0.00000000      26.57096100
2
Properties=species:S:1:pos:R:3:forces:R:3 energy=1.249822172534083 pbc="F F F"
Au       0.00000000       0.00000000       0.00000000       0.00000000       0.00000000     -20.75112343
Au       0.00000000       0.00000000       2.00707071       0.00000000       0.00000000      20.75112343
2
Properties=species:S:1:pos:R:3:forces:R:3 energy=0.16255726174878107 pbc="F F F"
Au       0.00000000       0.00000000       0.00000000       0.00000000       0.00000000     -15.88655090
Au       0.00000000       0.00000000       2.06666667       0.00000000       0.00000000      15.88655090
2
Properties=species:S:1:pos:R:3:forces:R:3 energy=-0.660730447494941 pbc="F F F"
Au       0.00000000       0.00000000       0.00000000       0.00000000       0.00000000     -11.87823486
Au       0.00000000       0.00000000       2.12626263       0.00000000       0.00000000      11.87823486
2
Properties=species:S:1:pos:R:3:forces:R:3 energy=-1.2686424442426223 pbc="F F F"
Au       0.00000000       0.00000000       0.00000000       0.00000000       0.00000000      -8.64520741
Au       0.00000000       0.00000000       2.18585859       0.00000000       0.00000000       8.64520741
2
Properties=species:S:1:pos:R:3:forces:R:3 energy=-1.7047865340648751 pbc="F F F"
Au       0.00000000       0.00000000       0.00000000       0.00000000       0.00000000      -6.09709120
Au       0.00000000       0.00000000       2.24545455       0.00000000       0.00000000       6.09709120
2
Properties=species:S:1:pos:R:3:forces:R:3 energy=-2.0068040443212953 pbc="F F F"
Au       0.00000000       0.00000000       0.00000000       0.00000000       0.00000000      -4.12449121
Au       0.00000000       0.00000000       2.30505051       0.00000000       0.00000000       4.12449121
2
Properties=species:S:1:pos:R:3:forces:R:3 energy=-2.205493711326018 pbc="F F F"
Au       0.00000000       0.00000000       0.00000000       0.00000000       0.00000000      -2.61041880
Au       0.00000000       0.00000000       2.36464646       0.00000000       0.00000000       2.61041880
2
Properties=species:S:1:pos:R:3:forces:R:3 energy=-2.3249660765525717 pbc="F F F"
Au       0.00000000       0.00000000       0.00000000       0.00000000       0.00000000      -1.45071268
Au       0.00000000       0.00000000       2.42424242       0.00000000       0.00000000       1.45071268
2
Properties=species:S:1:pos:R:3:forces:R:3 energy=-2.3839038337672758 pbc="F F F"
Au       0.00000000       0.00000000       0.00000000       0.00000000       0.00000000      -0.56866395
Au       0.00000000       0.00000000       2.48383838       0.00000000       0.00000000       0.56866395
2
Properties=species:S:1:pos:R:3:forces:R:3 energy=-2.397274976561939 pbc="F F F"
Au       0.00000000       0.00000000       0.00000000       0.00000000       0.00000000       0.08485252
Au       0.00000000       0.00000000       2.54343434       0.00000000       0.00000000      -0.08485252
2
Properties=species:S:1:pos:R:3:forces:R:3 energy=-2.37766939975487 pbc="F F F"
Au       0.00000000       0.00000000       0.00000000       0.00000000       0.00000000       0.54301667
Au       0.00000000       0.00000000       2.60303030       0.00000000       0.00000000      -0.54301667
2
Properties=species:S:1:pos:R:3:forces:R:3 energy=-2.3358197099459126 pbc="F F F"
Au       0.00000000       0.00000000       0.00000000       0.00000000       0.00000000       0.83687520
Au       0.00000000       0.00000000       2.66262626       0.00000000       0.00000000      -0.83687520
2
Properties=species:S:1:pos:R:3:forces:R:3 energy=-2.2804731809165637 pbc="F F F"
Au       0.00000000       0.00000000       0.00000000       0.00000000       0.00000000       1.00238621
Au       0.00000000       0.00000000       2.72222222       0.00000000       0.00000000      -1.00238621
2
Properties=species:S:1:pos:R:3:forces:R:3 energy=-2.218106596530338 pbc="F F F"
Au       0.00000000       0.00000000       0.00000000       0.00000000       0.00000000       1.07908058
Au       0.00000000       0.00000000       2.78181818       0.00000000       0.00000000      -1.07908058
2
Properties=species:S:1:pos:R:3:forces:R:3 energy=-2.1528734645527234 pbc="F F F"
Au       0.00000000       0.00000000       0.00000000       0.00000000       0.00000000       1.10428560
Au       0.00000000       0.00000000       2.84141414       0.00000000       0.00000000      -1.10428560
2
Properties=species:S:1:pos:R:3:forces:R:3 energy=-2.086908418299538 pbc="F F F"
Au       0.00000000       0.00000000       0.00000000       0.00000000       0.00000000       1.10782468
Au       0.00000000       0.00000000       2.90101010       0.00000000       0.00000000      -1.10782468
2
Properties=species:S:1:pos:R:3:forces:R:3 energy=-2.0208609727953033 pbc="F F F"
Au       0.00000000       0.00000000       0.00000000       0.00000000       0.00000000       1.10943735
Au       0.00000000       0.00000000       2.96060606       0.00000000       0.00000000      -1.10943735
2
Properties=species:S:1:pos:R:3:forces:R:3 energy=-1.954520237152836 pbc="F F F"
Au       0.00000000       0.00000000       0.00000000       0.00000000       0.00000000       1.11835492
Au       0.00000000       0.00000000       3.02020202       0.00000000       0.00000000      -1.11835492
2
Properties=species:S:1:pos:R:3:forces:R:3 energy=-1.8874252339779747 pbc="F F F"
Au       0.00000000       0.00000000       0.00000000       0.00000000       0.00000000       1.13391578
Au       0.00000000       0.00000000       3.07979798       0.00000000       0.00000000      -1.13391578
2
Properties=species:S:1:pos:R:3:forces:R:3 energy=-1.819380535795252 pbc="F F F"
Au       0.00000000       0.00000000       0.00000000       0.00000000       0.00000000       1.14874101
Au       0.00000000       0.00000000       3.13939394       0.00000000       0.00000000      -1.14874101
2
Properties=species:S:1:pos:R:3:forces:R:3 energy=-1.7506932292839161 pbc="F F F"
Au       0.00000000       0.00000000       0.00000000       0.00000000       0.00000000       1.15414488
Au       0.00000000       0.00000000       3.19898990       0.00000000       0.00000000      -1.15414488
2
Properties=species:S:1:pos:R:3:forces:R:3 energy=-1.6821280922291995 pbc="F F F"
Au       0.00000000       0.00000000       0.00000000       0.00000000       0.00000000       1.14392579
Au       0.00000000       0.00000000       3.25858586       0.00000000       0.00000000      -1.14392579
2
Properties=species:S:1:pos:R:3:forces:R:3 energy=-1.614710951290302 pbc="F F F"
Au       0.00000000       0.00000000       0.00000000       0.00000000       0.00000000       1.11547005
Au       0.00000000       0.00000000       3.31818182       0.00000000       0.00000000      -1.11547005
2
Properties=species:S:1:pos:R:3:forces:R:3 energy=-1.5495249714015584 pbc="F F F"
Au       0.00000000       0.00000000       0.00000000       0.00000000       0.00000000       1.06940460
Au       0.00000000       0.00000000       3.37777778       0.00000000       0.00000000      -1.06940460
2
Properties=species:S:1:pos:R:3:forces:R:3 energy=-1.487536715579743 pbc="F F F"
Au       0.00000000       0.00000000       0.00000000       0.00000000       0.00000000       1.00878656
Au       0.00000000       0.00000000       3.43737374       0.00000000       0.00000000      -1.00878656
2
Properties=species:S:1:pos:R:3:forces:R:3 energy=-1.4294853166511514 pbc="F F F"
Au       0.00000000       0.00000000       0.00000000       0.00000000       0.00000000       0.93812472
Au       0.00000000       0.00000000       3.49696970       0.00000000       0.00000000      -0.93812472
2
Properties=species:S:1:pos:R:3:forces:R:3 energy=-1.3758184230336619 pbc="F F F"
Au       0.00000000       0.00000000       0.00000000       0.00000000       0.00000000       0.86245954
Au       0.00000000       0.00000000       3.55656566       0.00000000       0.00000000      -0.86245954
2
Properties=species:S:1:pos:R:3:forces:R:3 energy=-1.3266907200521956 pbc="F F F"
Au       0.00000000       0.00000000       0.00000000       0.00000000       0.00000000       0.78657311
Au       0.00000000       0.00000000       3.61616162       0.00000000       0.00000000      -0.78657311
2
Properties=species:S:1:pos:R:3:forces:R:3 energy=-1.2819913815935542 pbc="F F F"
Au       0.00000000       0.00000000       0.00000000       0.00000000       0.00000000       0.71441126
Au       0.00000000       0.00000000       3.67575758       0.00000000       0.00000000      -0.71441126
2
Properties=species:S:1:pos:R:3:forces:R:3 energy=-1.241409040673212 pbc="F F F"
Au       0.00000000       0.00000000       0.00000000       0.00000000       0.00000000       0.64875871
Au       0.00000000       0.00000000       3.73535354       0.00000000       0.00000000      -0.64875871
2
Properties=species:S:1:pos:R:3:forces:R:3 energy=-1.2045032594922325 pbc="F F F"
Au       0.00000000       0.00000000       0.00000000       0.00000000       0.00000000       0.59117037
Au       0.00000000       0.00000000       3.79494949       0.00000000       0.00000000      -0.59117037
2
Properties=species:S:1:pos:R:3:forces:R:3 energy=-1.1707766764000254 pbc="F F F"
Au       0.00000000       0.00000000       0.00000000       0.00000000       0.00000000       0.54208297
Au       0.00000000       0.00000000       3.85454545       0.00000000       0.00000000      -0.54208297
2
Properties=species:S:1:pos:R:3:forces:R:3 energy=-1.1397310365963387 pbc="F F F"
Au       0.00000000       0.00000000       0.00000000       0.00000000       0.00000000       0.50106555
Au       0.00000000       0.00000000       3.91414141       0.00000000       0.00000000      -0.50106555
2
Properties=species:S:1:pos:R:3:forces:R:3 energy=-1.1109128049396464 pbc="F F F"
Au       0.00000000       0.00000000       0.00000000       0.00000000       0.00000000       0.46712148
Au       0.00000000       0.00000000       3.97373737       0.00000000       0.00000000      -0.46712148
2
Properties=species:S:1:pos:R:3:forces:R:3 energy=-1.0839383856315095 pbc="F F F"
Au       0.00000000       0.00000000       0.00000000       0.00000000       0.00000000       0.43898886
Au       0.00000000       0.00000000       4.03333333       0.00000000       0.00000000      -0.43898886
2
Properties=species:S:1:pos:R:3:forces:R:3 energy=-1.0584987808823347 pbc="F F F"
Au       0.00000000       0.00000000       0.00000000       0.00000000       0.00000000       0.41539291
Au       0.00000000       0.00000000       4.09292929       0.00000000       0.00000000      -0.41539291
2
Properties=species:S:1:pos:R:3:forces:R:3 energy=-1.0343583196229247 pbc="F F F"
Au       0.00000000       0.00000000       0.00000000       0.00000000       0.00000000       0.39523482
Au       0.00000000       0.00000000       4.15252525       0.00000000       0.00000000      -0.39523482
2
Properties=species:S:1:pos:R:3:forces:R:3 energy=-1.0113388464345028 pbc="F F F"
Au       0.00000000       0.00000000       0.00000000       0.00000000       0.00000000       0.37768829
Au       0.00000000       0.00000000       4.21212121       0.00000000       0.00000000      -0.37768829
2
Properties=species:S:1:pos:R:3:forces:R:3 energy=-0.989299618360336 pbc="F F F"
Au       0.00000000       0.00000000       0.00000000       0.00000000       0.00000000       0.36224809
Au       0.00000000       0.00000000       4.27171717       0.00000000       0.00000000      -0.36224809
2
Properties=species:S:1:pos:R:3:forces:R:3 energy=-0.9681240499158643 pbc="F F F"
Au       0.00000000       0.00000000       0.00000000       0.00000000       0.00000000       0.34871393
Au       0.00000000       0.00000000       4.33131313       0.00000000       0.00000000      -0.34871393
2
Properties=species:S:1:pos:R:3:forces:R:3 energy=-0.9476973354203567 pbc="F F F"
Au       0.00000000       0.00000000       0.00000000       0.00000000       0.00000000       0.33712834
Au       0.00000000       0.00000000       4.39090909       0.00000000       0.00000000      -0.33712834
2
Properties=species:S:1:pos:R:3:forces:R:3 energy=-0.9278978431693324 pbc="F F F"
Au       0.00000000       0.00000000       0.00000000       0.00000000       0.00000000       0.32769892
Au       0.00000000       0.00000000       4.45050505       0.00000000       0.00000000      -0.32769892
2
Properties=species:S:1:pos:R:3:forces:R:3 energy=-0.9085902286382139 pbc="F F F"
Au       0.00000000       0.00000000       0.00000000       0.00000000       0.00000000       0.32068601
Au       0.00000000       0.00000000       4.51010101       0.00000000       0.00000000      -0.32068601
2
Properties=species:S:1:pos:R:3:forces:R:3 energy=-0.8896223903096696 pbc="F F F"
Au       0.00000000       0.00000000       0.00000000       0.00000000       0.00000000       0.31628418
Au       0.00000000       0.00000000       4.56969697       0.00000000       0.00000000      -0.31628418
2
Properties=species:S:1:pos:R:3:forces:R:3 energy=-0.8708392757764462 pbc="F F F"
Au       0.00000000       0.00000000       0.00000000       0.00000000       0.00000000       0.31449160
Au       0.00000000       0.00000000       4.62929293       0.00000000       0.00000000      -0.31449160
2
Properties=species:S:1:pos:R:3:forces:R:3 energy=-0.8520923155303133 pbc="F F F"
Au       0.00000000       0.00000000       0.00000000       0.00000000       0.00000000       0.31499672
Au       0.00000000       0.00000000       4.68888889       0.00000000       0.00000000      -0.31499672
2
Properties=species:S:1:pos:R:3:forces:R:3 energy=-0.8332621555064131 pbc="F F F"
Au       0.00000000       0.00000000       0.00000000       0.00000000       0.00000000       0.31709647
Au       0.00000000       0.00000000       4.74848485       0.00000000       0.00000000      -0.31709647
2
Properties=species:S:1:pos:R:3:forces:R:3 energy=-0.8142871659424433 pbc="F F F"
Au       0.00000000       0.00000000       0.00000000       0.00000000       0.00000000       0.31967679
Au       0.00000000       0.00000000       4.80808081       0.00000000       0.00000000      -0.31967679
2
Properties=species:S:1:pos:R:3:forces:R:3 energy=-0.795177951233891 pbc="F F F"
Au       0.00000000       0.00000000       0.00000000       0.00000000       0.00000000       0.32130346
Au       0.00000000       0.00000000       4.86767677       0.00000000       0.00000000      -0.32130346
2
Properties=species:S:1:pos:R:3:forces:R:3 energy=-0.7760399563494726 pbc="F F F"
Au       0.00000000       0.00000000       0.00000000       0.00000000       0.00000000       0.32041135
Au       0.00000000       0.00000000       4.92727273       0.00000000       0.00000000      -0.32041135
2
Properties=species:S:1:pos:R:3:forces:R:3 energy=-0.757065023562419 pbc="F F F"
Au       0.00000000       0.00000000       0.00000000       0.00000000       0.00000000       0.31563967
Au       0.00000000       0.00000000       4.98686869       0.00000000       0.00000000      -0.31563967
2
Properties=species:S:1:pos:R:3:forces:R:3 energy=-0.7385115288486314 pbc="F F F"
Au       0.00000000       0.00000000       0.00000000       0.00000000       0.00000000       0.30631313
Au       0.00000000       0.00000000       5.04646465       0.00000000       0.00000000      -0.30631313
2
Properties=species:S:1:pos:R:3:forces:R:3 energy=-0.7206367522056396 pbc="F F F"
Au       0.00000000       0.00000000       0.00000000       0.00000000       0.00000000       0.29301050
Au       0.00000000       0.00000000       5.10606061       0.00000000       0.00000000      -0.29301050
2
Properties=species:S:1:pos:R:3:forces:R:3 energy=-0.7036197688331721 pbc="F F F"
Au       0.00000000       0.00000000       0.00000000       0.00000000       0.00000000       0.27794379
Au       0.00000000       0.00000000       5.16565657       0.00000000       0.00000000      -0.27794379
2
Properties=species:S:1:pos:R:3:forces:R:3 energy=-0.687482135941804 pbc="F F F"
Au       0.00000000       0.00000000       0.00000000       0.00000000       0.00000000       0.26402622
Au       0.00000000       0.00000000       5.22525253       0.00000000       0.00000000      -0.26402622
2
Properties=species:S:1:pos:R:3:forces:R:3 energy=-0.6721138366125441 pbc="F F F"
Au       0.00000000       0.00000000       0.00000000       0.00000000       0.00000000       0.25180343
Au       0.00000000       0.00000000       5.28484848       0.00000000       0.00000000      -0.25180343
2
Properties=species:S:1:pos:R:3:forces:R:3 energy=-0.6575201047987385 pbc="F F F"
Au       0.00000000       0.00000000       0.00000000       0.00000000       0.00000000       0.23695289
Au       0.00000000       0.00000000       5.34444444       0.00000000       0.00000000      -0.23695289
2
Properties=species:S:1:pos:R:3:forces:R:3 energy=-0.6440356093653685 pbc="F F F"
Au       0.00000000       0.00000000       0.00000000       0.00000000       0.00000000       0.21401078
Au       0.00000000       0.00000000       5.40404040       0.00000000       0.00000000      -0.21401078
2
Properties=species:S:1:pos:R:3:forces:R:3 energy=-0.6321628419304206 pbc="F F F"
Au       0.00000000       0.00000000       0.00000000       0.00000000       0.00000000       0.18360575
Au       0.00000000       0.00000000       5.46363636       0.00000000       0.00000000      -0.18360575
2
Properties=species:S:1:pos:R:3:forces:R:3 energy=-0.6221468836578339 pbc="F F F"
Au       0.00000000       0.00000000       0.00000000       0.00000000       0.00000000       0.15361378
Au       0.00000000       0.00000000       5.52323232       0.00000000       0.00000000      -0.15361378
2
Properties=species:S:1:pos:R:3:forces:R:3 energy=-0.6136665084377176 pbc="F F F"
Au       0.00000000       0.00000000       0.00000000       0.00000000       0.00000000       0.13296704
Au       0.00000000       0.00000000       5.58282828       0.00000000       0.00000000      -0.13296704
2
Properties=species:S:1:pos:R:3:forces:R:3 energy=-0.6060711693700679 pbc="F F F"
Au       0.00000000       0.00000000       0.00000000       0.00000000       0.00000000       0.12333403
Au       0.00000000       0.00000000       5.64242424       0.00000000       0.00000000      -0.12333403
2
Properties=species:S:1:pos:R:3:forces:R:3 energy=-0.5989176819461667 pbc="F F F"
Au       0.00000000       0.00000000       0.00000000       0.00000000       0.00000000       0.11582565
Au       0.00000000       0.00000000       5.70202020       0.00000000       0.00000000      -0.11582565
2
Properties=species:S:1:pos:R:3:forces:R:3 energy=-0.5924606096761271 pbc="F F F"
Au       0.00000000       0.00000000       0.00000000       0.00000000       0.00000000       0.09900996
Au       0.00000000       0.00000000       5.76161616       0.00000000       0.00000000      -0.09900996
2
Properties=species:S:1:pos:R:3:forces:R:3 energy=-0.5873541121522605 pbc="F F F"
Au       0.00000000       0.00000000       0.00000000       0.00000000       0.00000000       0.07074349
Au       0.00000000       0.00000000       5.82121212       0.00000000       0.00000000      -0.07074349
2
Properties=species:S:1:pos:R:3:forces:R:3 energy=-0.5841054274772844 pbc="F F F"
Au       0.00000000       0.00000000       0.00000000       0.00000000       0.00000000       0.03905248
Au       0.00000000       0.00000000       5.88080808       0.00000000       0.00000000      -0.03905248
2
Properties=species:S:1:pos:R:3:forces:R:3 energy=-0.5825414528752058 pbc="F F F"
Au       0.00000000       0.00000000       0.00000000       0.00000000       0.00000000       0.01498039
Au       0.00000000       0.00000000       5.94040404       0.00000000       0.00000000      -0.01498039
2
Properties=species:S:1:pos:R:3:forces:R:3 energy=-0.5820113709732232 pbc="F F F"
Au       0.00000000       0.00000000       0.00000000       0.00000000       0.00000000       0.00582827
Au       0.00000000       0.00000000       6.00000000       0.00000000       0.00000000      -0.00582827
