2
Properties=species:S:1:pos:R:3:forces:R:3 energy=279.332901198516 pbc="F F F"
B        0.00000000       0.00000000       0.00000000       0.00000000       0.00000000   -3479.93237305
B        0.00000000       0.00000000       0.18000000       0.00000000       0.00000000    3479.93237305
2
Properties=species:S:1:pos:R:3:forces:R:3 energy=144.58569355849835 pbc="F F F"
B        0.00000000       0.00000000       0.00000000       0.00000000       0.00000000   -1457.06127930
B        0.00000000       0.00000000       0.23878788       0.00000000       0.00000000    1457.06127930
2
Properties=species:S:1:pos:R:3:forces:R:3 energy=84.58718892299432 pbc="F F F"
B        0.00000000       0.00000000       0.00000000       0.00000000       0.00000000    -694.29821777
B        0.00000000       0.00000000       0.29757576       0.00000000       0.00000000     694.29821777
2
Properties=species:S:1:pos:R:3:forces:R:3 energy=54.90741750599011 pbc="F F F"
B        0.00000000       0.00000000       0.00000000       0.00000000       0.00000000    -357.51712036
B        0.00000000       0.00000000       0.35636364       0.00000000       0.00000000     357.51712036
2
Properties=species:S:1:pos:R:3:forces:R:3 energy=39.2159578660675 pbc="F F F"
B        0.00000000       0.00000000       0.00000000       0.00000000       0.00000000    -195.14212036
B        0.00000000       0.00000000       0.41515152       0.00000000       0.00000000     195.14212036
2
Properties=species:S:1:pos:R:3:forces:R:3 energy=30.428861875770064 pbc="F F F"
B        0.00000000       0.00000000       0.00000000       0.00000000       0.00000000    -113.16125488
B        0.00000000       0.00000000       0.47393939       0.00000000       0.00000000     113.16125488
2
Properties=species:S:1:pos:R:3:forces:R:3 energy=25.00289376737658 pbc="F F F"
B        0.00000000       0.00000000       0.00000000       0.00000000       0.00000000     -77.92126465
B        0.00000000       0.00000000       0.53272727       0.00000000       0.00000000      77.92126465
2
Properties=species:S:1:pos:R:3:forces:R:3 energy=20.6854633772828 pbc="F F F"
B        0.00000000       0.00000000       0.00000000       0.00000000       0.00000000     -72.07286835
B        0.00000000       0.00000000       0.59151515       0.00000000       0.00000000      72.07286835
2
Properties=species:S:1:pos:R:3:forces:R:3 energy=16.36459410571224 pbc="F F F"
B        0.00000000       0.00000000       0.00000000       0.00000000       0.00000000     -74.75770569
B        0.00000000       0.00000000       0.65030303       0.00000000       0.00000000      74.75770569
2
Properties=species:S:1:pos:R:3:forces:R:3 energy=12.099656982078805 pbc="F F F"
B        0.00000000       0.00000000       0.00000000       0.00000000       0.00000000     -67.34857941
B        0.00000000       0.00000000       0.70909091       0.00000000       0.00000000      67.34857941
2
Properties=species:S:1:pos:R:3:forces:R:3 energy=8.722539292742413 pbc="F F F"
B        0.00000000       0.00000000       0.00000000       0.00000000       0.00000000     -47.21344757
B        0.00000000       0.00000000       0.76787879       0.00000000       0.00000000      47.21344757
2
Properties=species:S:1:pos:R:3:forces:R:3 energy=6.401546965426887 pbc="F F F"
B        0.00000000       0.00000000       0.00000000       0.00000000       0.00000000     -33.38767624
B        0.00000000       0.00000000       0.82666667       0.00000000       0.00000000      33.38767624
2
Properties=species:S:1:pos:R:3:forces:R:3 energy=4.652496284692576 pbc="F F F"
B        0.00000000       0.00000000       0.00000000       0.00000000       0.00000000     -26.91285896
B        0.00000000       0.00000000       0.88545455       0.00000000       0.00000000      26.91285896
2
Properties=species:S:1:pos:R:3:forces:R:3 energy=3.1826937163592293 pbc="F F F"
B        0.00000000       0.00000000       0.00000000       0.00000000       0.00000000     -23.29202080
B        0.00000000       0.00000000       0.94424242       0.00000000       0.00000000      23.29202080
2
Properties=species:S:1:pos:R:3:forces:R:3 energy=1.907980478652452 pbc="F F F"
B        0.00000000       0.00000000       0.00000000       0.00000000       0.00000000     -20.04555893
B        0.00000000       0.00000000       1.00303030       0.00000000       0.00000000      20.04555893
2
Properties=species:S:1:pos:R:3:forces:R:3 energy=0.8293191392360515 pbc="F F F"
B        0.00000000       0.00000000       0.00000000       0.00000000       0.00000000     -16.66623306
B        0.00000000       0.00000000       1.06181818       0.00000000       0.00000000      16.66623306
2
Properties=species:S:1:pos:R:3:forces:R:3 energy=-0.06526895965139712 pbc="F F F"
B        0.00000000       0.00000000       0.00000000       0.00000000       0.00000000     -13.98682022
B        0.00000000       0.00000000       1.12060606       0.00000000       0.00000000      13.98682022
2
Properties=species:S:1:pos:R:3:forces:R:3 energy=-0.8430516466464609 pbc="F F F"
B        0.00000000       0.00000000       0.00000000       0.00000000       0.00000000     -12.64632511
B        0.00000000       0.00000000       1.17939394       0.00000000       0.00000000      12.64632511
2
Properties=species:S:1:pos:R:3:forces:R:3 energy=-1.556823065784633 pbc="F F F"
B        0.00000000       0.00000000       0.00000000       0.00000000       0.00000000     -11.55461788
B        0.00000000       0.00000000       1.23818182       0.00000000       0.00000000      11.55461788
2
Properties=species:S:1:pos:R:3:forces:R:3 energy=-2.185248212721614 pbc="F F F"
B        0.00000000       0.00000000       0.00000000       0.00000000       0.00000000      -9.67560196
B        0.00000000       0.00000000       1.29696970       0.00000000       0.00000000       9.67560196
2
Properties=species:S:1:pos:R:3:forces:R:3 energy=-2.6815551712306687 pbc="F F F"
B        0.00000000       0.00000000       0.00000000       0.00000000       0.00000000      -7.15747452
B        0.00000000       0.00000000       1.35575758       0.00000000       0.00000000       7.15747452
2
Properties=species:S:1:pos:R:3:forces:R:3 energy=-3.028186464445507 pbc="F F F"
B        0.00000000       0.00000000       0.00000000       0.00000000       0.00000000      -4.70039082
B        0.00000000       0.00000000       1.41454545       0.00000000       0.00000000       4.70039082
2
Properties=species:S:1:pos:R:3:forces:R:3 energy=-3.245135587561832 pbc="F F F"
B        0.00000000       0.00000000       0.00000000       0.00000000       0.00000000      -2.78338361
B        0.00000000       0.00000000       1.47333333       0.00000000       0.00000000       2.78338361
2
Properties=species:S:1:pos:R:3:forces:R:3 energy=-3.3666301380549726 pbc="F F F"
B        0.00000000       0.00000000       0.00000000       0.00000000       0.00000000      -1.43197370
B        0.00000000       0.00000000       1.53212121       0.00000000       0.00000000       1.43197370
2
Properties=species:S:1:pos:R:3:forces:R:3 energy=-3.4214476972771486 pbc="F F F"
B        0.00000000       0.00000000       0.00000000       0.00000000       0.00000000      -0.48733374
B        0.00000000       0.00000000       1.59090909       0.00000000       0.00000000       0.48733374
2
Properties=species:S:1:pos:R:3:forces:R:3 energy=-3.429049461140687 pbc="F F F"
B        0.00000000       0.00000000       0.00000000       0.00000000       0.00000000       0.19474261
B        0.00000000       0.00000000       1.64969697       0.00000000       0.00000000      -0.19474261
2
Properties=species:S:1:pos:R:3:forces:R:3 energy=-3.4015781440535227 pbc="F F F"
B        0.00000000       0.00000000       0.00000000       0.00000000       0.00000000       0.72184515
B        0.00000000       0.00000000       1.70848485       0.00000000       0.00000000      -0.72184515
2
Properties=species:S:1:pos:R:3:forces:R:3 energy=-3.34562652786165 pbc="F F F"
B        0.00000000       0.00000000       0.00000000       0.00000000       0.00000000       1.17306685
B        0.00000000       0.00000000       1.76727273       0.00000000       0.00000000      -1.17306685
2
Properties=species:S:1:pos:R:3:forces:R:3 energy=-3.2645147449073386 pbc="F F F"
B        0.00000000       0.00000000       0.00000000       0.00000000       0.00000000       1.57860017
B        0.00000000       0.00000000       1.82606061       0.00000000       0.00000000      -1.57860017
2
Properties=species:S:1:pos:R:3:forces:R:3 energy=-3.16123493579551 pbc="F F F"
B        0.00000000       0.00000000       0.00000000       0.00000000       0.00000000       1.92126203
B        0.00000000       0.00000000       1.88484848       0.00000000       0.00000000      -1.92126203
2
Properties=species:S:1:pos:R:3:forces:R:3 energy=-3.040679343725982 pbc="F F F"
B        0.00000000       0.00000000       0.00000000       0.00000000       0.00000000       2.15952444
B        0.00000000       0.00000000       1.94363636       0.00000000       0.00000000      -2.15952444
2
Properties=species:S:1:pos:R:3:forces:R:3 energy=-2.9098861729099923 pbc="F F F"
B        0.00000000       0.00000000       0.00000000       0.00000000       0.00000000       2.26909280
B        0.00000000       0.00000000       2.00242424       0.00000000       0.00000000      -2.26909280
2
Properties=species:S:1:pos:R:3:forces:R:3 energy=-2.77596916005892 pbc="F F F"
B        0.00000000       0.00000000       0.00000000       0.00000000       0.00000000       2.27351809
B        0.00000000       0.00000000       2.06121212       0.00000000       0.00000000      -2.27351809
2
Properties=species:S:1:pos:R:3:forces:R:3 energy=-2.6436977726733093 pbc="F F F"
B        0.00000000       0.00000000       0.00000000       0.00000000       0.00000000       2.21966434
B        0.00000000       0.00000000       2.12000000       0.00000000       0.00000000      -2.21966434
2
Properties=species:S:1:pos:R:3:forces:R:3 energy=-2.515565665006002 pbc="F F F"
B        0.00000000       0.00000000       0.00000000       0.00000000       0.00000000       2.13626933
B        0.00000000       0.00000000       2.17878788       0.00000000       0.00000000      -2.13626933
2
Properties=species:S:1:pos:R:3:forces:R:3 energy=-2.3927045092370514 pbc="F F F"
B        0.00000000       0.00000000       0.00000000       0.00000000       0.00000000       2.04355526
B        0.00000000       0.00000000       2.23757576       0.00000000       0.00000000      -2.04355526
2
Properties=species:S:1:pos:R:3:forces:R:3 energy=-2.275182989892522 pbc="F F F"
B        0.00000000       0.00000000       0.00000000       0.00000000       0.00000000       1.95614910
B        0.00000000       0.00000000       2.29636364       0.00000000       0.00000000      -1.95614910
2
Properties=species:S:1:pos:R:3:forces:R:3 energy=-2.1625018137285066 pbc="F F F"
B        0.00000000       0.00000000       0.00000000       0.00000000       0.00000000       1.87901866
B        0.00000000       0.00000000       2.35515152       0.00000000       0.00000000      -1.87901866
2
Properties=species:S:1:pos:R:3:forces:R:3 energy=-2.054099452431016 pbc="F F F"
B        0.00000000       0.00000000       0.00000000       0.00000000       0.00000000       1.80976129
B        0.00000000       0.00000000       2.41393939       0.00000000       0.00000000      -1.80976129
2
Properties=species:S:1:pos:R:3:forces:R:3 energy=-1.9496754000098464 pbc="F F F"
B        0.00000000       0.00000000       0.00000000       0.00000000       0.00000000       1.74261856
B        0.00000000       0.00000000       2.47272727       0.00000000       0.00000000      -1.74261856
2
Properties=species:S:1:pos:R:3:forces:R:3 energy=-1.8492795232606514 pbc="F F F"
B        0.00000000       0.00000000       0.00000000       0.00000000       0.00000000       1.67195320
B        0.00000000       0.00000000       2.53151515       0.00000000       0.00000000      -1.67195320
2
Properties=species:S:1:pos:R:3:forces:R:3 energy=-1.7532294553126848 pbc="F F F"
B        0.00000000       0.00000000       0.00000000       0.00000000       0.00000000       1.59452951
B        0.00000000       0.00000000       2.59030303       0.00000000       0.00000000      -1.59452951
2
Properties=species:S:1:pos:R:3:forces:R:3 energy=-1.661940092203434 pbc="F F F"
B        0.00000000       0.00000000       0.00000000       0.00000000       0.00000000       1.51013482
B        0.00000000       0.00000000       2.64909091       0.00000000       0.00000000      -1.51013482
2
Properties=species:S:1:pos:R:3:forces:R:3 energy=-1.5757706623836536 pbc="F F F"
B        0.00000000       0.00000000       0.00000000       0.00000000       0.00000000       1.42080331
B        0.00000000       0.00000000       2.70787879       0.00000000       0.00000000      -1.42080331
2
Properties=species:S:1:pos:R:3:forces:R:3 energy=-1.4949275848257737 pbc="F F F"
B        0.00000000       0.00000000       0.00000000       0.00000000       0.00000000       1.32943630
B        0.00000000       0.00000000       2.76666667       0.00000000       0.00000000      -1.32943630
2
Properties=species:S:1:pos:R:3:forces:R:3 energy=-1.4194498576385062 pbc="F F F"
B        0.00000000       0.00000000       0.00000000       0.00000000       0.00000000       1.23863339
B        0.00000000       0.00000000       2.82545455       0.00000000       0.00000000      -1.23863339
2
Properties=species:S:1:pos:R:3:forces:R:3 energy=-1.3492490778781243 pbc="F F F"
B        0.00000000       0.00000000       0.00000000       0.00000000       0.00000000       1.15009379
B        0.00000000       0.00000000       2.88424242       0.00000000       0.00000000      -1.15009379
2
Properties=species:S:1:pos:R:3:forces:R:3 energy=-1.2841675526613554 pbc="F F F"
B        0.00000000       0.00000000       0.00000000       0.00000000       0.00000000       1.06455851
B        0.00000000       0.00000000       2.94303030       0.00000000       0.00000000      -1.06455851
2
Properties=species:S:1:pos:R:3:forces:R:3 energy=-1.2240224362808658 pbc="F F F"
B        0.00000000       0.00000000       0.00000000       0.00000000       0.00000000       0.98213410
B        0.00000000       0.00000000       3.00181818       0.00000000       0.00000000      -0.98213410
2
Properties=species:S:1:pos:R:3:forces:R:3 energy=-1.1686331716845642 pbc="F F F"
B        0.00000000       0.00000000       0.00000000       0.00000000       0.00000000       0.90270990
B        0.00000000       0.00000000       3.06060606       0.00000000       0.00000000      -0.90270990
2
Properties=species:S:1:pos:R:3:forces:R:3 energy=-1.1178262315047367 pbc="F F F"
B        0.00000000       0.00000000       0.00000000       0.00000000       0.00000000       0.82633084
B        0.00000000       0.00000000       3.11939394       0.00000000       0.00000000      -0.82633084
2
Properties=species:S:1:pos:R:3:forces:R:3 energy=-1.0714106274686646 pbc="F F F"
B        0.00000000       0.00000000       0.00000000       0.00000000       0.00000000       0.75335473
B        0.00000000       0.00000000       3.17818182       0.00000000       0.00000000      -0.75335473
2
Properties=species:S:1:pos:R:3:forces:R:3 energy=-1.0291706734780053 pbc="F F F"
B        0.00000000       0.00000000       0.00000000       0.00000000       0.00000000       0.68443173
B        0.00000000       0.00000000       3.23696970       0.00000000       0.00000000      -0.68443173
2
Properties=species:S:1:pos:R:3:forces:R:3 energy=-0.9908439255545808 pbc="F F F"
B        0.00000000       0.00000000       0.00000000       0.00000000       0.00000000       0.62033111
B        0.00000000       0.00000000       3.29575758       0.00000000       0.00000000      -0.62033111
2
Properties=species:S:1:pos:R:3:forces:R:3 energy=-0.9561264254652075 pbc="F F F"
B        0.00000000       0.00000000       0.00000000       0.00000000       0.00000000       0.56173015
B        0.00000000       0.00000000       3.35454545       0.00000000       0.00000000      -0.56173015
2
Properties=species:S:1:pos:R:3:forces:R:3 energy=-0.924681509953793 pbc="F F F"
B        0.00000000       0.00000000       0.00000000       0.00000000       0.00000000       0.50903904
B        0.00000000       0.00000000       3.41333333       0.00000000       0.00000000      -0.50903904
2
Properties=species:S:1:pos:R:3:forces:R:3 energy=-0.8961584248135276 pbc="F F F"
B        0.00000000       0.00000000       0.00000000       0.00000000       0.00000000       0.46231738
B        0.00000000       0.00000000       3.47212121       0.00000000       0.00000000      -0.46231738
2
Properties=species:S:1:pos:R:3:forces:R:3 energy=-0.8702129520937172 pbc="F F F"
B        0.00000000       0.00000000       0.00000000       0.00000000       0.00000000       0.42129329
B        0.00000000       0.00000000       3.53090909       0.00000000       0.00000000      -0.42129329
2
Properties=species:S:1:pos:R:3:forces:R:3 energy=-0.8465233144524955 pbc="F F F"
B        0.00000000       0.00000000       0.00000000       0.00000000       0.00000000       0.38543475
B        0.00000000       0.00000000       3.58969697       0.00000000       0.00000000      -0.38543475
2
Properties=species:S:1:pos:R:3:forces:R:3 energy=-0.8248063294314527 pbc="F F F"
B        0.00000000       0.00000000       0.00000000       0.00000000       0.00000000       0.35408330
B        0.00000000       0.00000000       3.64848485       0.00000000       0.00000000      -0.35408330
2
Properties=species:S:1:pos:R:3:forces:R:3 energy=-0.8048170316528809 pbc="F F F"
B        0.00000000       0.00000000       0.00000000       0.00000000       0.00000000       0.32655352
B        0.00000000       0.00000000       3.70727273       0.00000000       0.00000000      -0.32655352
2
Properties=species:S:1:pos:R:3:forces:R:3 energy=-0.7863489174059816 pbc="F F F"
B        0.00000000       0.00000000       0.00000000       0.00000000       0.00000000       0.30222473
B        0.00000000       0.00000000       3.76606061       0.00000000       0.00000000      -0.30222473
2
Properties=species:S:1:pos:R:3:forces:R:3 energy=-0.7692297289721556 pbc="F F F"
B        0.00000000       0.00000000       0.00000000       0.00000000       0.00000000       0.28058952
B        0.00000000       0.00000000       3.82484848       0.00000000       0.00000000      -0.28058952
2
Properties=species:S:1:pos:R:3:forces:R:3 energy=-0.7533133218827845 pbc="F F F"
B        0.00000000       0.00000000       0.00000000       0.00000000       0.00000000       0.26126415
B        0.00000000       0.00000000       3.88363636       0.00000000       0.00000000      -0.26126415
2
Properties=species:S:1:pos:R:3:forces:R:3 energy=-0.7384717495887885 pbc="F F F"
B        0.00000000       0.00000000       0.00000000       0.00000000       0.00000000       0.24398039
B        0.00000000       0.00000000       3.94242424       0.00000000       0.00000000      -0.24398039
2
Properties=species:S:1:pos:R:3:forces:R:3 energy=-0.7245908753076263 pbc="F F F"
B        0.00000000       0.00000000       0.00000000       0.00000000       0.00000000       0.22855680
B        0.00000000       0.00000000       4.00121212       0.00000000       0.00000000      -0.22855680
2
Properties=species:S:1:pos:R:3:forces:R:3 energy=-0.7115651236467336 pbc="F F F"
B        0.00000000       0.00000000       0.00000000       0.00000000       0.00000000       0.21486656
B        0.00000000       0.00000000       4.06000000       0.00000000       0.00000000      -0.21486656
2
Properties=species:S:1:pos:R:3:forces:R:3 energy=-0.6992957934584914 pbc="F F F"
B        0.00000000       0.00000000       0.00000000       0.00000000       0.00000000       0.20280004
B        0.00000000       0.00000000       4.11878788       0.00000000       0.00000000      -0.20280004
2
Properties=species:S:1:pos:R:3:forces:R:3 energy=-0.6876912095196925 pbc="F F F"
B        0.00000000       0.00000000       0.00000000       0.00000000       0.00000000       0.19223173
B        0.00000000       0.00000000       4.17757576       0.00000000       0.00000000      -0.19223173
2
Properties=species:S:1:pos:R:3:forces:R:3 energy=-0.6766677516496142 pbc="F F F"
B        0.00000000       0.00000000       0.00000000       0.00000000       0.00000000       0.18299487
B        0.00000000       0.00000000       4.23636364       0.00000000       0.00000000      -0.18299487
2
Properties=species:S:1:pos:R:3:forces:R:3 energy=-0.6661534204853026 pbc="F F F"
B        0.00000000       0.00000000       0.00000000       0.00000000       0.00000000       0.17487454
B        0.00000000       0.00000000       4.29515152       0.00000000       0.00000000      -0.17487454
2
Properties=species:S:1:pos:R:3:forces:R:3 energy=-0.656090037685737 pbc="F F F"
B        0.00000000       0.00000000       0.00000000       0.00000000       0.00000000       0.16761635
B        0.00000000       0.00000000       4.35393939       0.00000000       0.00000000      -0.16761635
2
Properties=species:S:1:pos:R:3:forces:R:3 energy=-0.6464344675350606 pbc="F F F"
B        0.00000000       0.00000000       0.00000000       0.00000000       0.00000000       0.16095036
B        0.00000000       0.00000000       4.41272727       0.00000000       0.00000000      -0.16095036
2
Properties=species:S:1:pos:R:3:forces:R:3 energy=-0.6371595137641143 pbc="F F F"
B        0.00000000       0.00000000       0.00000000       0.00000000       0.00000000       0.15462011
B        0.00000000       0.00000000       4.47151515       0.00000000       0.00000000      -0.15462011
2
Properties=species:S:1:pos:R:3:forces:R:3 energy=-0.6282523735814715 pbc="F F F"
B        0.00000000       0.00000000       0.00000000       0.00000000       0.00000000       0.14840931
B        0.00000000       0.00000000       4.53030303       0.00000000       0.00000000      -0.14840931
2
Properties=species:S:1:pos:R:3:forces:R:3 energy=-0.6197112067385732 pbc="F F F"
B        0.00000000       0.00000000       0.00000000       0.00000000       0.00000000       0.14214879
B        0.00000000       0.00000000       4.58909091       0.00000000       0.00000000      -0.14214879
2
Properties=species:S:1:pos:R:3:forces:R:3 energy=-0.6115425865772234 pbc="F F F"
B        0.00000000       0.00000000       0.00000000       0.00000000       0.00000000       0.13572136
B        0.00000000       0.00000000       4.64787879       0.00000000       0.00000000      -0.13572136
2
Properties=species:S:1:pos:R:3:forces:R:3 energy=-0.6037583892927034 pbc="F F F"
B        0.00000000       0.00000000       0.00000000       0.00000000       0.00000000       0.12904793
B        0.00000000       0.00000000       4.70666667       0.00000000       0.00000000      -0.12904793
2
Properties=species:S:1:pos:R:3:forces:R:3 energy=-0.596375162833301 pbc="F F F"
B        0.00000000       0.00000000       0.00000000       0.00000000       0.00000000       0.12208895
B        0.00000000       0.00000000       4.76545455       0.00000000       0.00000000      -0.12208895
2
Properties=species:S:1:pos:R:3:forces:R:3 energy=-0.5894089359405248 pbc="F F F"
B        0.00000000       0.00000000       0.00000000       0.00000000       0.00000000       0.11485910
B        0.00000000       0.00000000       4.82424242       0.00000000       0.00000000      -0.11485910
2
Properties=species:S:1:pos:R:3:forces:R:3 energy=-0.5828744015030762 pbc="F F F"
B        0.00000000       0.00000000       0.00000000       0.00000000       0.00000000       0.10745752
B        0.00000000       0.00000000       4.88303030       0.00000000       0.00000000      -0.10745752
2
Properties=species:S:1:pos:R:3:forces:R:3 energy=-0.5767736059295427 pbc="F F F"
B        0.00000000       0.00000000       0.00000000       0.00000000       0.00000000       0.10011625
B        0.00000000       0.00000000       4.94181818       0.00000000       0.00000000      -0.10011625
2
Properties=species:S:1:pos:R:3:forces:R:3 energy=-0.5710938970399183 pbc="F F F"
B        0.00000000       0.00000000       0.00000000       0.00000000       0.00000000       0.09321439
B        0.00000000       0.00000000       5.00060606       0.00000000       0.00000000      -0.09321439
2
Properties=species:S:1:pos:R:3:forces:R:3 energy=-0.565796079768337 pbc="F F F"
B        0.00000000       0.00000000       0.00000000       0.00000000       0.00000000       0.08719905
B        0.00000000       0.00000000       5.05939394       0.00000000       0.00000000      -0.08719905
2
Properties=species:S:1:pos:R:3:forces:R:3 energy=-0.5608183441299622 pbc="F F F"
B        0.00000000       0.00000000       0.00000000       0.00000000       0.00000000       0.08233473
B        0.00000000       0.00000000       5.11818182       0.00000000       0.00000000      -0.08233473
2
Properties=species:S:1:pos:R:3:forces:R:3 energy=-0.5560999508356946 pbc="F F F"
B        0.00000000       0.00000000       0.00000000       0.00000000       0.00000000       0.07825047
B        0.00000000       0.00000000       5.17696970       0.00000000       0.00000000      -0.07825047
2
Properties=species:S:1:pos:R:3:forces:R:3 energy=-0.5516284346070351 pbc="F F F"
B        0.00000000       0.00000000       0.00000000       0.00000000       0.00000000       0.07364491
B        0.00000000       0.00000000       5.23575758       0.00000000       0.00000000      -0.07364491
2
Properties=species:S:1:pos:R:3:forces:R:3 energy=-0.547485630049228 pbc="F F F"
B        0.00000000       0.00000000       0.00000000       0.00000000       0.00000000       0.06681205
B        0.00000000       0.00000000       5.29454545       0.00000000       0.00000000      -0.06681205
2
Properties=species:S:1:pos:R:3:forces:R:3 energy=-0.543833606736995 pbc="F F F"
B        0.00000000       0.00000000       0.00000000       0.00000000       0.00000000       0.05692896
B        0.00000000       0.00000000       5.35333333       0.00000000       0.00000000      -0.05692896
2
Properties=species:S:1:pos:R:3:forces:R:3 energy=-0.5408398542979637 pbc="F F F"
B        0.00000000       0.00000000       0.00000000       0.00000000       0.00000000       0.04461303
B        0.00000000       0.00000000       5.41212121       0.00000000       0.00000000      -0.04461303
2
Properties=species:S:1:pos:R:3:forces:R:3 energy=-0.5386097659912593 pbc="F F F"
B        0.00000000       0.00000000       0.00000000       0.00000000       0.00000000       0.03118712
B        0.00000000       0.00000000       5.47090909       0.00000000       0.00000000      -0.03118712
2
Properties=species:S:1:pos:R:3:forces:R:3 energy=-0.5371702355508586 pbc="F F F"
B        0.00000000       0.00000000       0.00000000       0.00000000       0.00000000       0.01787685
B        0.00000000       0.00000000       5.52969697       0.00000000       0.00000000      -0.01787685
2
Properties=species:S:1:pos:R:3:forces:R:3 energy=-0.536492244574115 pbc="F F F"
B        0.00000000       0.00000000       0.00000000       0.00000000       0.00000000       0.00535670
B        0.00000000       0.00000000       5.58848485       0.00000000       0.00000000      -0.00535670
2
Properties=species:S:1:pos:R:3:forces:R:3 energy=-0.5365120318721094 pbc="F F F"
B        0.00000000       0.00000000       0.00000000       0.00000000       0.00000000      -0.00565540
B        0.00000000       0.00000000       5.64727273       0.00000000       0.00000000       0.00565540
2
Properties=species:S:1:pos:R:3:forces:R:3 energy=-0.5370880412951113 pbc="F F F"
B        0.00000000       0.00000000       0.00000000       0.00000000       0.00000000      -0.01314007
B        0.00000000       0.00000000       5.70606061       0.00000000       0.00000000       0.01314007
2
Properties=species:S:1:pos:R:3:forces:R:3 energy=-0.5379450765361803 pbc="F F F"
B        0.00000000       0.00000000       0.00000000       0.00000000       0.00000000      -0.01491934
B        0.00000000       0.00000000       5.76484848       0.00000000       0.00000000       0.01491934
2
Properties=species:S:1:pos:R:3:forces:R:3 energy=-0.5387339093397409 pbc="F F F"
B        0.00000000       0.00000000       0.00000000       0.00000000       0.00000000      -0.01126131
B        0.00000000       0.00000000       5.82363636       0.00000000       0.00000000       0.01126131
2
Properties=species:S:1:pos:R:3:forces:R:3 energy=-0.5392193147328272 pbc="F F F"
B        0.00000000       0.00000000       0.00000000       0.00000000       0.00000000      -0.00520896
B        0.00000000       0.00000000       5.88242424       0.00000000       0.00000000       0.00520896
2
Properties=species:S:1:pos:R:3:forces:R:3 energy=-0.539367877972315 pbc="F F F"
B        0.00000000       0.00000000       0.00000000       0.00000000       0.00000000      -0.00019721
B        0.00000000       0.00000000       5.94121212       0.00000000       0.00000000       0.00019721
2
Properties=species:S:1:pos:R:3:forces:R:3 energy=-0.5393067997168314 pbc="F F F"
B        0.00000000       0.00000000       0.00000000       0.00000000       0.00000000       0.00162845
B        0.00000000       0.00000000       6.00000000       0.00000000       0.00000000      -0.00162845
