2
Properties=species:S:1:pos:R:3:forces:R:3 energy=192.48384415525717 pbc="F F F"
Be       0.00000000       0.00000000       0.00000000       0.00000000       0.00000000   -2367.70141602
Be       0.00000000       0.00000000       0.18000000       0.00000000       0.00000000    2367.70141602
2
Properties=species:S:1:pos:R:3:forces:R:3 energy=100.02595078367513 pbc="F F F"
Be       0.00000000       0.00000000       0.00000000       0.00000000       0.00000000   -1011.10681152
Be       0.00000000       0.00000000       0.23878788       0.00000000       0.00000000    1011.10681152
2
Properties=species:S:1:pos:R:3:forces:R:3 energy=57.99906480051483 pbc="F F F"
Be       0.00000000       0.00000000       0.00000000       0.00000000       0.00000000    -492.68634033
Be       0.00000000       0.00000000       0.29757576       0.00000000       0.00000000     492.68634033
2
Properties=species:S:1:pos:R:3:forces:R:3 energy=36.674525625447984 pbc="F F F"
Be       0.00000000       0.00000000       0.00000000       0.00000000       0.00000000    -261.02239990
Be       0.00000000       0.00000000       0.35636364       0.00000000       0.00000000     261.02239990
2
Properties=species:S:1:pos:R:3:forces:R:3 energy=25.106677445224157 pbc="F F F"
Be       0.00000000       0.00000000       0.00000000       0.00000000       0.00000000    -144.88777161
Be       0.00000000       0.00000000       0.41515152       0.00000000       0.00000000     144.88777161
2
Properties=species:S:1:pos:R:3:forces:R:3 energy=18.610711531932065 pbc="F F F"
Be       0.00000000       0.00000000       0.00000000       0.00000000       0.00000000     -82.14453125
Be       0.00000000       0.00000000       0.47393939       0.00000000       0.00000000      82.14453125
2
Properties=species:S:1:pos:R:3:forces:R:3 energy=14.9571319055492 pbc="F F F"
Be       0.00000000       0.00000000       0.00000000       0.00000000       0.00000000     -45.06464005
Be       0.00000000       0.00000000       0.53272727       0.00000000       0.00000000      45.06464005
2
Properties=species:S:1:pos:R:3:forces:R:3 energy=13.034148884881176 pbc="F F F"
Be       0.00000000       0.00000000       0.00000000       0.00000000       0.00000000     -22.42382431
Be       0.00000000       0.00000000       0.59151515       0.00000000       0.00000000      22.42382431
2
Properties=species:S:1:pos:R:3:forces:R:3 energy=12.099400476038493 pbc="F F F"
Be       0.00000000       0.00000000       0.00000000       0.00000000       0.00000000     -11.01507187
Be       0.00000000       0.00000000       0.65030303       0.00000000       0.00000000      11.01507187
2
Properties=species:S:1:pos:R:3:forces:R:3 energy=11.584680899439064 pbc="F F F"
Be       0.00000000       0.00000000       0.00000000       0.00000000       0.00000000      -7.51789236
Be       0.00000000       0.00000000       0.70909091       0.00000000       0.00000000       7.51789236
2
Properties=species:S:1:pos:R:3:forces:R:3 energy=11.119810075763164 pbc="F F F"
Be       0.00000000       0.00000000       0.00000000       0.00000000       0.00000000      -8.94651985
Be       0.00000000       0.00000000       0.76787879       0.00000000       0.00000000       8.94651985
2
Properties=species:S:1:pos:R:3:forces:R:3 energy=10.474771382167965 pbc="F F F"
Be       0.00000000       0.00000000       0.00000000       0.00000000       0.00000000     -13.21917439
Be       0.00000000       0.00000000       0.82666667       0.00000000       0.00000000      13.21917439
2
Properties=species:S:1:pos:R:3:forces:R:3 energy=9.59718339184956 pbc="F F F"
Be       0.00000000       0.00000000       0.00000000       0.00000000       0.00000000     -15.99985981
Be       0.00000000       0.00000000       0.88545455       0.00000000       0.00000000      15.99985981
2
Properties=species:S:1:pos:R:3:forces:R:3 energy=8.653373708022299 pbc="F F F"
Be       0.00000000       0.00000000       0.00000000       0.00000000       0.00000000     -15.90014553
Be       0.00000000       0.00000000       0.94424242       0.00000000       0.00000000      15.90014553
2
Properties=species:S:1:pos:R:3:forces:R:3 energy=7.726305943050287 pbc="F F F"
Be       0.00000000       0.00000000       0.00000000       0.00000000       0.00000000     -15.76131725
Be       0.00000000       0.00000000       1.00303030       0.00000000       0.00000000      15.76131725
2
Properties=species:S:1:pos:R:3:forces:R:3 energy=6.786578027823068 pbc="F F F"
Be       0.00000000       0.00000000       0.00000000       0.00000000       0.00000000     -16.26024818
Be       0.00000000       0.00000000       1.06181818       0.00000000       0.00000000      16.26024818
2
Properties=species:S:1:pos:R:3:forces:R:3 energy=5.822382745544589 pbc="F F F"
Be       0.00000000       0.00000000       0.00000000       0.00000000       0.00000000     -16.37340546
Be       0.00000000       0.00000000       1.12060606       0.00000000       0.00000000      16.37340546
2
Properties=species:S:1:pos:R:3:forces:R:3 energy=4.8822523619332 pbc="F F F"
Be       0.00000000       0.00000000       0.00000000       0.00000000       0.00000000     -15.48418045
Be       0.00000000       0.00000000       1.17939394       0.00000000       0.00000000      15.48418045
2
Properties=species:S:1:pos:R:3:forces:R:3 energy=4.009134959768334 pbc="F F F"
Be       0.00000000       0.00000000       0.00000000       0.00000000       0.00000000     -14.19323635
Be       0.00000000       0.00000000       1.23818182       0.00000000       0.00000000      14.19323635
2
Properties=species:S:1:pos:R:3:forces:R:3 energy=3.216822464476244 pbc="F F F"
Be       0.00000000       0.00000000       0.00000000       0.00000000       0.00000000     -12.72861004
Be       0.00000000       0.00000000       1.29696970       0.00000000       0.00000000      12.72861004
2
Properties=species:S:1:pos:R:3:forces:R:3 energy=2.5142095119741286 pbc="F F F"
Be       0.00000000       0.00000000       0.00000000       0.00000000       0.00000000     -11.19671726
Be       0.00000000       0.00000000       1.35575758       0.00000000       0.00000000      11.19671726
2
Properties=species:S:1:pos:R:3:forces:R:3 energy=1.893622840216168 pbc="F F F"
Be       0.00000000       0.00000000       0.00000000       0.00000000       0.00000000      -9.99110031
Be       0.00000000       0.00000000       1.41454545       0.00000000       0.00000000       9.99110031
2
Properties=species:S:1:pos:R:3:forces:R:3 energy=1.3321241433581403 pbc="F F F"
Be       0.00000000       0.00000000       0.00000000       0.00000000       0.00000000      -9.14910889
Be       0.00000000       0.00000000       1.47333333       0.00000000       0.00000000       9.14910889
2
Properties=species:S:1:pos:R:3:forces:R:3 energy=0.8168683403547986 pbc="F F F"
Be       0.00000000       0.00000000       0.00000000       0.00000000       0.00000000      -8.36475182
Be       0.00000000       0.00000000       1.53212121       0.00000000       0.00000000       8.36475182
2
Properties=species:S:1:pos:R:3:forces:R:3 energy=0.3520737231129701 pbc="F F F"
Be       0.00000000       0.00000000       0.00000000       0.00000000       0.00000000      -7.41206026
Be       0.00000000       0.00000000       1.59090909       0.00000000       0.00000000       7.41206026
2
Properties=species:S:1:pos:R:3:forces:R:3 energy=-0.05068059511394614 pbc="F F F"
Be       0.00000000       0.00000000       0.00000000       0.00000000       0.00000000      -6.26258802
Be       0.00000000       0.00000000       1.64969697       0.00000000       0.00000000       6.26258802
2
Properties=species:S:1:pos:R:3:forces:R:3 energy=-0.38214636580112815 pbc="F F F"
Be       0.00000000       0.00000000       0.00000000       0.00000000       0.00000000      -5.00679302
Be       0.00000000       0.00000000       1.70848485       0.00000000       0.00000000       5.00679302
2
Properties=species:S:1:pos:R:3:forces:R:3 energy=-0.6398210971222503 pbc="F F F"
Be       0.00000000       0.00000000       0.00000000       0.00000000       0.00000000      -3.77420020
Be       0.00000000       0.00000000       1.76727273       0.00000000       0.00000000       3.77420020
2
Properties=species:S:1:pos:R:3:forces:R:3 energy=-0.828675097425303 pbc="F F F"
Be       0.00000000       0.00000000       0.00000000       0.00000000       0.00000000      -2.68122053
Be       0.00000000       0.00000000       1.82606061       0.00000000       0.00000000       2.68122053
2
Properties=species:S:1:pos:R:3:forces:R:3 energy=-0.9590799250940236 pbc="F F F"
Be       0.00000000       0.00000000       0.00000000       0.00000000       0.00000000      -1.79073822
Be       0.00000000       0.00000000       1.88484848       0.00000000       0.00000000       1.79073822
2
Properties=species:S:1:pos:R:3:forces:R:3 energy=-1.0432286909469513 pbc="F F F"
Be       0.00000000       0.00000000       0.00000000       0.00000000       0.00000000      -1.10330093
Be       0.00000000       0.00000000       1.94363636       0.00000000       0.00000000       1.10330093
2
Properties=species:S:1:pos:R:3:forces:R:3 energy=-1.0920130046504386 pbc="F F F"
Be       0.00000000       0.00000000       0.00000000       0.00000000       0.00000000      -0.57969761
Be       0.00000000       0.00000000       2.00242424       0.00000000       0.00000000       0.57969761
2
Properties=species:S:1:pos:R:3:forces:R:3 energy=-1.1136964150886683 pbc="F F F"
Be       0.00000000       0.00000000       0.00000000       0.00000000       0.00000000      -0.17439783
Be       0.00000000       0.00000000       2.06121212       0.00000000       0.00000000       0.17439783
2
Properties=species:S:1:pos:R:3:forces:R:3 energy=-1.1141616876284632 pbc="F F F"
Be       0.00000000       0.00000000       0.00000000       0.00000000       0.00000000       0.14647186
Be       0.00000000       0.00000000       2.12000000       0.00000000       0.00000000      -0.14647186
2
Properties=species:S:1:pos:R:3:forces:R:3 energy=-1.0977604708035578 pbc="F F F"
Be       0.00000000       0.00000000       0.00000000       0.00000000       0.00000000       0.40135345
Be       0.00000000       0.00000000       2.17878788       0.00000000       0.00000000      -0.40135345
2
Properties=species:S:1:pos:R:3:forces:R:3 energy=-1.0681153637606373 pbc="F F F"
Be       0.00000000       0.00000000       0.00000000       0.00000000       0.00000000       0.59771001
Be       0.00000000       0.00000000       2.23757576       0.00000000       0.00000000      -0.59771001
2
Properties=species:S:1:pos:R:3:forces:R:3 energy=-1.0285913692493185 pbc="F F F"
Be       0.00000000       0.00000000       0.00000000       0.00000000       0.00000000       0.73755383
Be       0.00000000       0.00000000       2.29636364       0.00000000       0.00000000      -0.73755383
2
Properties=species:S:1:pos:R:3:forces:R:3 energy=-0.9825053233283058 pbc="F F F"
Be       0.00000000       0.00000000       0.00000000       0.00000000       0.00000000       0.82092500
Be       0.00000000       0.00000000       2.35515152       0.00000000       0.00000000      -0.82092500
2
Properties=species:S:1:pos:R:3:forces:R:3 energy=-0.9331290565065128 pbc="F F F"
Be       0.00000000       0.00000000       0.00000000       0.00000000       0.00000000       0.85075849
Be       0.00000000       0.00000000       2.41393939       0.00000000       0.00000000      -0.85075849
2
Properties=species:S:1:pos:R:3:forces:R:3 energy=-0.883187067984022 pbc="F F F"
Be       0.00000000       0.00000000       0.00000000       0.00000000       0.00000000       0.84516168
Be       0.00000000       0.00000000       2.47272727       0.00000000       0.00000000      -0.84516168
2
Properties=species:S:1:pos:R:3:forces:R:3 energy=-0.833757905168141 pbc="F F F"
Be       0.00000000       0.00000000       0.00000000       0.00000000       0.00000000       0.83869433
Be       0.00000000       0.00000000       2.53151515       0.00000000       0.00000000      -0.83869433
2
Properties=species:S:1:pos:R:3:forces:R:3 energy=-0.7843161305442513 pbc="F F F"
Be       0.00000000       0.00000000       0.00000000       0.00000000       0.00000000       0.84426647
Be       0.00000000       0.00000000       2.59030303       0.00000000       0.00000000      -0.84426647
2
Properties=species:S:1:pos:R:3:forces:R:3 energy=-0.7345905017371765 pbc="F F F"
Be       0.00000000       0.00000000       0.00000000       0.00000000       0.00000000       0.84532839
Be       0.00000000       0.00000000       2.64909091       0.00000000       0.00000000      -0.84532839
2
Properties=species:S:1:pos:R:3:forces:R:3 energy=-0.6852168004123802 pbc="F F F"
Be       0.00000000       0.00000000       0.00000000       0.00000000       0.00000000       0.83201098
Be       0.00000000       0.00000000       2.70787879       0.00000000       0.00000000      -0.83201098
2
Properties=species:S:1:pos:R:3:forces:R:3 energy=-0.6369990345290819 pbc="F F F"
Be       0.00000000       0.00000000       0.00000000       0.00000000       0.00000000       0.80685425
Be       0.00000000       0.00000000       2.76666667       0.00000000       0.00000000      -0.80685425
2
Properties=species:S:1:pos:R:3:forces:R:3 energy=-0.5904852446451571 pbc="F F F"
Be       0.00000000       0.00000000       0.00000000       0.00000000       0.00000000       0.77471107
Be       0.00000000       0.00000000       2.82545455       0.00000000       0.00000000      -0.77471107
2
Properties=species:S:1:pos:R:3:forces:R:3 energy=-0.5459838050430914 pbc="F F F"
Be       0.00000000       0.00000000       0.00000000       0.00000000       0.00000000       0.73883879
Be       0.00000000       0.00000000       2.88424242       0.00000000       0.00000000      -0.73883879
2
Properties=species:S:1:pos:R:3:forces:R:3 energy=-0.5036549138132155 pbc="F F F"
Be       0.00000000       0.00000000       0.00000000       0.00000000       0.00000000       0.70098090
Be       0.00000000       0.00000000       2.94303030       0.00000000       0.00000000      -0.70098090
2
Properties=species:S:1:pos:R:3:forces:R:3 energy=-0.4635860896078068 pbc="F F F"
Be       0.00000000       0.00000000       0.00000000       0.00000000       0.00000000       0.66205055
Be       0.00000000       0.00000000       3.00181818       0.00000000       0.00000000      -0.66205055
2
Properties=species:S:1:pos:R:3:forces:R:3 energy=-0.42582410898779605 pbc="F F F"
Be       0.00000000       0.00000000       0.00000000       0.00000000       0.00000000       0.62257427
Be       0.00000000       0.00000000       3.06060606       0.00000000       0.00000000      -0.62257427
2
Properties=species:S:1:pos:R:3:forces:R:3 energy=-0.39039000214899006 pbc="F F F"
Be       0.00000000       0.00000000       0.00000000       0.00000000       0.00000000       0.58292079
Be       0.00000000       0.00000000       3.11939394       0.00000000       0.00000000      -0.58292079
2
Properties=species:S:1:pos:R:3:forces:R:3 energy=-0.3572842031973633 pbc="F F F"
Be       0.00000000       0.00000000       0.00000000       0.00000000       0.00000000       0.54338938
Be       0.00000000       0.00000000       3.17818182       0.00000000       0.00000000      -0.54338938
2
Properties=species:S:1:pos:R:3:forces:R:3 energy=-0.3264928621863707 pbc="F F F"
Be       0.00000000       0.00000000       0.00000000       0.00000000       0.00000000       0.50423658
Be       0.00000000       0.00000000       3.23696970       0.00000000       0.00000000      -0.50423658
2
Properties=species:S:1:pos:R:3:forces:R:3 energy=-0.29798718854423956 pbc="F F F"
Be       0.00000000       0.00000000       0.00000000       0.00000000       0.00000000       0.46565515
Be       0.00000000       0.00000000       3.29575758       0.00000000       0.00000000      -0.46565515
2
Properties=species:S:1:pos:R:3:forces:R:3 energy=-0.27172946275375953 pbc="F F F"
Be       0.00000000       0.00000000       0.00000000       0.00000000       0.00000000       0.42775899
Be       0.00000000       0.00000000       3.35454545       0.00000000       0.00000000      -0.42775899
2
Properties=species:S:1:pos:R:3:forces:R:3 energy=-0.24767867072520233 pbc="F F F"
Be       0.00000000       0.00000000       0.00000000       0.00000000       0.00000000       0.39058882
Be       0.00000000       0.00000000       3.41333333       0.00000000       0.00000000      -0.39058882
2
Properties=species:S:1:pos:R:3:forces:R:3 energy=-0.22579152057913915 pbc="F F F"
Be       0.00000000       0.00000000       0.00000000       0.00000000       0.00000000       0.35414347
Be       0.00000000       0.00000000       3.47212121       0.00000000       0.00000000      -0.35414347
2
Properties=species:S:1:pos:R:3:forces:R:3 energy=-0.206025497030512 pbc="F F F"
Be       0.00000000       0.00000000       0.00000000       0.00000000       0.00000000       0.31844795
Be       0.00000000       0.00000000       3.53090909       0.00000000       0.00000000      -0.31844795
2
Properties=species:S:1:pos:R:3:forces:R:3 energy=-0.1883328867309419 pbc="F F F"
Be       0.00000000       0.00000000       0.00000000       0.00000000       0.00000000       0.28361779
Be       0.00000000       0.00000000       3.58969697       0.00000000       0.00000000      -0.28361779
2
Properties=species:S:1:pos:R:3:forces:R:3 energy=-0.1726569065506645 pbc="F F F"
Be       0.00000000       0.00000000       0.00000000       0.00000000       0.00000000       0.24991284
Be       0.00000000       0.00000000       3.64848485       0.00000000       0.00000000      -0.24991284
2
Properties=species:S:1:pos:R:3:forces:R:3 energy=-0.15891949602365643 pbc="F F F"
Be       0.00000000       0.00000000       0.00000000       0.00000000       0.00000000       0.21773612
Be       0.00000000       0.00000000       3.70727273       0.00000000       0.00000000      -0.21773612
2
Properties=species:S:1:pos:R:3:forces:R:3 energy=-0.147016337315945 pbc="F F F"
Be       0.00000000       0.00000000       0.00000000       0.00000000       0.00000000       0.18759891
Be       0.00000000       0.00000000       3.76606061       0.00000000       0.00000000      -0.18759891
2
Properties=species:S:1:pos:R:3:forces:R:3 energy=-0.13681159125787729 pbc="F F F"
Be       0.00000000       0.00000000       0.00000000       0.00000000       0.00000000       0.16005214
Be       0.00000000       0.00000000       3.82484848       0.00000000       0.00000000      -0.16005214
2
Properties=species:S:1:pos:R:3:forces:R:3 energy=-0.12813753157566327 pbc="F F F"
Be       0.00000000       0.00000000       0.00000000       0.00000000       0.00000000       0.13559125
Be       0.00000000       0.00000000       3.88363636       0.00000000       0.00000000      -0.13559125
2
Properties=species:S:1:pos:R:3:forces:R:3 energy=-0.12080148619563019 pbc="F F F"
Be       0.00000000       0.00000000       0.00000000       0.00000000       0.00000000       0.11458527
Be       0.00000000       0.00000000       3.94242424       0.00000000       0.00000000      -0.11458527
2
Properties=species:S:1:pos:R:3:forces:R:3 energy=-0.114593704721299 pbc="F F F"
Be       0.00000000       0.00000000       0.00000000       0.00000000       0.00000000       0.09721781
Be       0.00000000       0.00000000       4.00121212       0.00000000       0.00000000      -0.09721781
2
Properties=species:S:1:pos:R:3:forces:R:3 energy=-0.10930009482043325 pbc="F F F"
Be       0.00000000       0.00000000       0.00000000       0.00000000       0.00000000       0.08346699
Be       0.00000000       0.00000000       4.06000000       0.00000000       0.00000000      -0.08346699
2
Properties=species:S:1:pos:R:3:forces:R:3 energy=-0.10471336806360965 pbc="F F F"
Be       0.00000000       0.00000000       0.00000000       0.00000000       0.00000000       0.07311278
Be       0.00000000       0.00000000       4.11878788       0.00000000       0.00000000      -0.07311278
2
Properties=species:S:1:pos:R:3:forces:R:3 energy=-0.10064476843000061 pbc="F F F"
Be       0.00000000       0.00000000       0.00000000       0.00000000       0.00000000       0.06576465
Be       0.00000000       0.00000000       4.17757576       0.00000000       0.00000000      -0.06576465
2
Properties=species:S:1:pos:R:3:forces:R:3 energy=-0.09693216792066109 pbc="F F F"
Be       0.00000000       0.00000000       0.00000000       0.00000000       0.00000000       0.06090610
Be       0.00000000       0.00000000       4.23636364       0.00000000       0.00000000      -0.06090610
2
Properties=species:S:1:pos:R:3:forces:R:3 energy=-0.09344647053604613 pbc="F F F"
Be       0.00000000       0.00000000       0.00000000       0.00000000       0.00000000       0.05794449
Be       0.00000000       0.00000000       4.29515152       0.00000000       0.00000000      -0.05794449
2
Properties=species:S:1:pos:R:3:forces:R:3 energy=-0.09009415525989861 pbc="F F F"
Be       0.00000000       0.00000000       0.00000000       0.00000000       0.00000000       0.05626927
Be       0.00000000       0.00000000       4.35393939       0.00000000       0.00000000      -0.05626927
2
Properties=species:S:1:pos:R:3:forces:R:3 energy=-0.08681673099891368 pbc="F F F"
Be       0.00000000       0.00000000       0.00000000       0.00000000       0.00000000       0.05530374
Be       0.00000000       0.00000000       4.41272727       0.00000000       0.00000000      -0.05530374
2
Properties=species:S:1:pos:R:3:forces:R:3 energy=-0.08358749363332466 pbc="F F F"
Be       0.00000000       0.00000000       0.00000000       0.00000000       0.00000000       0.05455884
Be       0.00000000       0.00000000       4.47151515       0.00000000       0.00000000      -0.05455884
2
Properties=species:S:1:pos:R:3:forces:R:3 energy=-0.08040484850031282 pbc="F F F"
Be       0.00000000       0.00000000       0.00000000       0.00000000       0.00000000       0.05367043
Be       0.00000000       0.00000000       4.53030303       0.00000000       0.00000000      -0.05367043
2
Properties=species:S:1:pos:R:3:forces:R:3 energy=-0.07728430019691745 pbc="F F F"
Be       0.00000000       0.00000000       0.00000000       0.00000000       0.00000000       0.05242429
Be       0.00000000       0.00000000       4.58909091       0.00000000       0.00000000      -0.05242429
2
Properties=species:S:1:pos:R:3:forces:R:3 energy=-0.07424924820168688 pbc="F F F"
Be       0.00000000       0.00000000       0.00000000       0.00000000       0.00000000       0.05076391
Be       0.00000000       0.00000000       4.64787879       0.00000000       0.00000000      -0.05076391
2
Properties=species:S:1:pos:R:3:forces:R:3 energy=-0.07132217875751753 pbc="F F F"
Be       0.00000000       0.00000000       0.00000000       0.00000000       0.00000000       0.04877618
Be       0.00000000       0.00000000       4.70666667       0.00000000       0.00000000      -0.04877618
2
Properties=species:S:1:pos:R:3:forces:R:3 energy=-0.06851689441157416 pbc="F F F"
Be       0.00000000       0.00000000       0.00000000       0.00000000       0.00000000       0.04666276
Be       0.00000000       0.00000000       4.76545455       0.00000000       0.00000000      -0.04666276
2
Properties=species:S:1:pos:R:3:forces:R:3 energy=-0.06583292537189497 pbc="F F F"
Be       0.00000000       0.00000000       0.00000000       0.00000000       0.00000000       0.04469135
Be       0.00000000       0.00000000       4.82424242       0.00000000       0.00000000      -0.04469135
2
Properties=species:S:1:pos:R:3:forces:R:3 energy=-0.06325406346843437 pbc="F F F"
Be       0.00000000       0.00000000       0.00000000       0.00000000       0.00000000       0.04314006
Be       0.00000000       0.00000000       4.88303030       0.00000000       0.00000000      -0.04314006
2
Properties=species:S:1:pos:R:3:forces:R:3 energy=-0.0607479422217021 pbc="F F F"
Be       0.00000000       0.00000000       0.00000000       0.00000000       0.00000000       0.04223793
Be       0.00000000       0.00000000       4.94181818       0.00000000       0.00000000      -0.04223793
2
Properties=species:S:1:pos:R:3:forces:R:3 energy=-0.058272519254871834 pbc="F F F"
Be       0.00000000       0.00000000       0.00000000       0.00000000       0.00000000       0.04210455
Be       0.00000000       0.00000000       5.00060606       0.00000000       0.00000000      -0.04210455
2
Properties=species:S:1:pos:R:3:forces:R:3 energy=-0.05578338255251394 pbc="F F F"
Be       0.00000000       0.00000000       0.00000000       0.00000000       0.00000000       0.04267345
Be       0.00000000       0.00000000       5.05939394       0.00000000       0.00000000      -0.04267345
2
Properties=species:S:1:pos:R:3:forces:R:3 energy=-0.05324889133229144 pbc="F F F"
Be       0.00000000       0.00000000       0.00000000       0.00000000       0.00000000       0.04354395
Be       0.00000000       0.00000000       5.11818182       0.00000000       0.00000000      -0.04354395
2
Properties=species:S:1:pos:R:3:forces:R:3 energy=-0.05067577063421681 pbc="F F F"
Be       0.00000000       0.00000000       0.00000000       0.00000000       0.00000000       0.04378632
Be       0.00000000       0.00000000       5.17696970       0.00000000       0.00000000      -0.04378632
2
Properties=species:S:1:pos:R:3:forces:R:3 energy=-0.04813999453469441 pbc="F F F"
Be       0.00000000       0.00000000       0.00000000       0.00000000       0.00000000       0.04205197
Be       0.00000000       0.00000000       5.23575758       0.00000000       0.00000000      -0.04205197
2
Properties=species:S:1:pos:R:3:forces:R:3 energy=-0.04578550405819684 pbc="F F F"
Be       0.00000000       0.00000000       0.00000000       0.00000000       0.00000000       0.03764816
Be       0.00000000       0.00000000       5.29454545       0.00000000       0.00000000      -0.03764816
2
Properties=species:S:1:pos:R:3:forces:R:3 energy=-0.043740231360376323 pbc="F F F"
Be       0.00000000       0.00000000       0.00000000       0.00000000       0.00000000       0.03191913
Be       0.00000000       0.00000000       5.35333333       0.00000000       0.00000000      -0.03191913
2
Properties=species:S:1:pos:R:3:forces:R:3 energy=-0.04201155447305168 pbc="F F F"
Be       0.00000000       0.00000000       0.00000000       0.00000000       0.00000000       0.02716811
Be       0.00000000       0.00000000       5.41212121       0.00000000       0.00000000      -0.02716811
2
Properties=species:S:1:pos:R:3:forces:R:3 energy=-0.04052078647977353 pbc="F F F"
Be       0.00000000       0.00000000       0.00000000       0.00000000       0.00000000       0.02360008
Be       0.00000000       0.00000000       5.47090909       0.00000000       0.00000000      -0.02360008
2
Properties=species:S:1:pos:R:3:forces:R:3 energy=-0.03925977651304304 pbc="F F F"
Be       0.00000000       0.00000000       0.00000000       0.00000000       0.00000000       0.01885690
Be       0.00000000       0.00000000       5.52969697       0.00000000       0.00000000      -0.01885690
2
Properties=species:S:1:pos:R:3:forces:R:3 energy=-0.03837379960483191 pbc="F F F"
Be       0.00000000       0.00000000       0.00000000       0.00000000       0.00000000       0.01064944
Be       0.00000000       0.00000000       5.58848485       0.00000000       0.00000000      -0.01064944
2
Properties=species:S:1:pos:R:3:forces:R:3 energy=-0.03805994977417322 pbc="F F F"
Be       0.00000000       0.00000000       0.00000000       0.00000000       0.00000000      -0.00007091
Be       0.00000000       0.00000000       5.64727273       0.00000000       0.00000000       0.00007091
2
Properties=species:S:1:pos:R:3:forces:R:3 energy=-0.038337972562797 pbc="F F F"
Be       0.00000000       0.00000000       0.00000000       0.00000000       0.00000000      -0.00857577
Be       0.00000000       0.00000000       5.70606061       0.00000000       0.00000000       0.00857577
2
Properties=species:S:1:pos:R:3:forces:R:3 energy=-0.03894418770136595 pbc="F F F"
Be       0.00000000       0.00000000       0.00000000       0.00000000       0.00000000      -0.01084637
Be       0.00000000       0.00000000       5.76484848       0.00000000       0.00000000       0.01084637
2
Properties=species:S:1:pos:R:3:forces:R:3 energy=-0.03949985842924459 pbc="F F F"
Be       0.00000000       0.00000000       0.00000000       0.00000000       0.00000000      -0.00742634
Be       0.00000000       0.00000000       5.82363636       0.00000000       0.00000000       0.00742634
2
Properties=species:S:1:pos:R:3:forces:R:3 energy=-0.03977389131227161 pbc="F F F"
Be       0.00000000       0.00000000       0.00000000       0.00000000       0.00000000      -0.00189851
Be       0.00000000       0.00000000       5.88242424       0.00000000       0.00000000       0.00189851
2
Properties=species:S:1:pos:R:3:forces:R:3 energy=-0.03974682593469793 pbc="F F F"
Be       0.00000000       0.00000000       0.00000000       0.00000000       0.00000000       0.00248724
Be       0.00000000       0.00000000       5.94121212       0.00000000       0.00000000      -0.00248724
2
Properties=species:S:1:pos:R:3:forces:R:3 energy=-0.039540343299251116 pbc="F F F"
Be       0.00000000       0.00000000       0.00000000       0.00000000       0.00000000       0.00395838
Be       0.00000000       0.00000000       6.00000000       0.00000000       0.00000000      -0.00395838
