2
Properties=species:S:1:pos:R:3:forces:R:3 energy=192.48384415525717 pbc="F F F"
Be       0.00000000       0.00000000       0.00000000       0.00000000       0.00000000   -2367.70141602
Be       0.00000000       0.00000000       0.18000000       0.00000000       0.00000000    2367.70141602
2
Properties=species:S:1:pos:R:3:forces:R:3 energy=100.02596604246419 pbc="F F F"
Be       0.00000000       0.00000000       0.00000000       0.00000000       0.00000000   -1011.10681152
Be       0.00000000       0.00000000       0.23878788       0.00000000       0.00000000    1011.10681152
2
Properties=species:S:1:pos:R:3:forces:R:3 energy=57.99906480051483 pbc="F F F"
Be       0.00000000       0.00000000       0.00000000       0.00000000       0.00000000    -492.68634033
Be       0.00000000       0.00000000       0.29757576       0.00000000       0.00000000     492.68634033
2
Properties=species:S:1:pos:R:3:forces:R:3 energy=36.67452181075072 pbc="F F F"
Be       0.00000000       0.00000000       0.00000000       0.00000000       0.00000000    -261.02246094
Be       0.00000000       0.00000000       0.35636364       0.00000000       0.00000000     261.02246094
2
Properties=species:S:1:pos:R:3:forces:R:3 energy=25.106681259921423 pbc="F F F"
Be       0.00000000       0.00000000       0.00000000       0.00000000       0.00000000    -144.88774109
Be       0.00000000       0.00000000       0.41515152       0.00000000       0.00000000     144.88774109
2
Properties=species:S:1:pos:R:3:forces:R:3 energy=18.610717253977963 pbc="F F F"
Be       0.00000000       0.00000000       0.00000000       0.00000000       0.00000000     -82.14451599
Be       0.00000000       0.00000000       0.47393939       0.00000000       0.00000000      82.14451599
2
Properties=species:S:1:pos:R:3:forces:R:3 energy=14.957132859223517 pbc="F F F"
Be       0.00000000       0.00000000       0.00000000       0.00000000       0.00000000     -45.06464386
Be       0.00000000       0.00000000       0.53272727       0.00000000       0.00000000      45.06464386
2
Properties=species:S:1:pos:R:3:forces:R:3 energy=13.034152699578442 pbc="F F F"
Be       0.00000000       0.00000000       0.00000000       0.00000000       0.00000000     -22.42381859
Be       0.00000000       0.00000000       0.59151515       0.00000000       0.00000000      22.42381859
2
Properties=species:S:1:pos:R:3:forces:R:3 energy=12.099394753992595 pbc="F F F"
Be       0.00000000       0.00000000       0.00000000       0.00000000       0.00000000     -11.01508331
Be       0.00000000       0.00000000       0.65030303       0.00000000       0.00000000      11.01508331
2
Properties=species:S:1:pos:R:3:forces:R:3 energy=11.584680899439064 pbc="F F F"
Be       0.00000000       0.00000000       0.00000000       0.00000000       0.00000000      -7.51789522
Be       0.00000000       0.00000000       0.70909091       0.00000000       0.00000000       7.51789522
2
Properties=species:S:1:pos:R:3:forces:R:3 energy=11.119810075763164 pbc="F F F"
Be       0.00000000       0.00000000       0.00000000       0.00000000       0.00000000      -8.94651985
Be       0.00000000       0.00000000       0.76787879       0.00000000       0.00000000       8.94651985
2
Properties=species:S:1:pos:R:3:forces:R:3 energy=10.474779011562497 pbc="F F F"
Be       0.00000000       0.00000000       0.00000000       0.00000000       0.00000000     -13.21918392
Be       0.00000000       0.00000000       0.82666667       0.00000000       0.00000000      13.21918392
2
Properties=species:S:1:pos:R:3:forces:R:3 energy=9.597188160221142 pbc="F F F"
Be       0.00000000       0.00000000       0.00000000       0.00000000       0.00000000     -15.99986935
Be       0.00000000       0.00000000       0.88545455       0.00000000       0.00000000      15.99986935
2
Properties=species:S:1:pos:R:3:forces:R:3 energy=8.653371800673666 pbc="F F F"
Be       0.00000000       0.00000000       0.00000000       0.00000000       0.00000000     -15.90012646
Be       0.00000000       0.00000000       0.94424242       0.00000000       0.00000000      15.90012646
2
Properties=species:S:1:pos:R:3:forces:R:3 energy=7.726307373561761 pbc="F F F"
Be       0.00000000       0.00000000       0.00000000       0.00000000       0.00000000     -15.76132393
Be       0.00000000       0.00000000       1.00303030       0.00000000       0.00000000      15.76132393
2
Properties=species:S:1:pos:R:3:forces:R:3 energy=6.786580412008859 pbc="F F F"
Be       0.00000000       0.00000000       0.00000000       0.00000000       0.00000000     -16.26026535
Be       0.00000000       0.00000000       1.06181818       0.00000000       0.00000000      16.26026535
2
Properties=species:S:1:pos:R:3:forces:R:3 energy=5.822383699218905 pbc="F F F"
Be       0.00000000       0.00000000       0.00000000       0.00000000       0.00000000     -16.37340355
Be       0.00000000       0.00000000       1.12060606       0.00000000       0.00000000      16.37340355
2
Properties=species:S:1:pos:R:3:forces:R:3 energy=4.8822533156075165 pbc="F F F"
Be       0.00000000       0.00000000       0.00000000       0.00000000       0.00000000     -15.48417473
Be       0.00000000       0.00000000       1.17939394       0.00000000       0.00000000      15.48417473
2
Properties=species:S:1:pos:R:3:forces:R:3 energy=4.009131621908226 pbc="F F F"
Be       0.00000000       0.00000000       0.00000000       0.00000000       0.00000000     -14.19322777
Be       0.00000000       0.00000000       1.23818182       0.00000000       0.00000000      14.19322777
2
Properties=species:S:1:pos:R:3:forces:R:3 energy=3.2168236565691397 pbc="F F F"
Be       0.00000000       0.00000000       0.00000000       0.00000000       0.00000000     -12.72861481
Be       0.00000000       0.00000000       1.29696970       0.00000000       0.00000000      12.72861481
2
Properties=species:S:1:pos:R:3:forces:R:3 energy=2.5142097503927077 pbc="F F F"
Be       0.00000000       0.00000000       0.00000000       0.00000000       0.00000000     -11.19671917
Be       0.00000000       0.00000000       1.35575758       0.00000000       0.00000000      11.19671917
2
Properties=species:S:1:pos:R:3:forces:R:3 energy=1.8936199791932187 pbc="F F F"
Be       0.00000000       0.00000000       0.00000000       0.00000000       0.00000000      -9.99110126
Be       0.00000000       0.00000000       1.41454545       0.00000000       0.00000000       9.99110126
2
Properties=species:S:1:pos:R:3:forces:R:3 energy=1.3321252162417463 pbc="F F F"
Be       0.00000000       0.00000000       0.00000000       0.00000000       0.00000000      -9.14910698
Be       0.00000000       0.00000000       1.47333333       0.00000000       0.00000000       9.14910698
2
Properties=species:S:1:pos:R:3:forces:R:3 energy=0.8168679890625742 pbc="F F F"
Be       0.00000000       0.00000000       0.00000000       0.00000000       0.00000000      -8.36474991
Be       0.00000000       0.00000000       1.53212121       0.00000000       0.00000000       8.36474991
2
Properties=species:S:1:pos:R:3:forces:R:3 energy=0.352075332438379 pbc="F F F"
Be       0.00000000       0.00000000       0.00000000       0.00000000       0.00000000      -7.41206074
Be       0.00000000       0.00000000       1.59090909       0.00000000       0.00000000       7.41206074
2
Properties=species:S:1:pos:R:3:forces:R:3 energy=-0.05068008847446555 pbc="F F F"
Be       0.00000000       0.00000000       0.00000000       0.00000000       0.00000000      -6.26259184
Be       0.00000000       0.00000000       1.64969697       0.00000000       0.00000000       6.26259184
2
Properties=species:S:1:pos:R:3:forces:R:3 energy=-0.3821460677779043 pbc="F F F"
Be       0.00000000       0.00000000       0.00000000       0.00000000       0.00000000      -5.00679350
Be       0.00000000       0.00000000       1.70848485       0.00000000       0.00000000       5.00679350
2
Properties=species:S:1:pos:R:3:forces:R:3 energy=-0.6398214515822969 pbc="F F F"
Be       0.00000000       0.00000000       0.00000000       0.00000000       0.00000000      -3.77420092
Be       0.00000000       0.00000000       1.76727273       0.00000000       0.00000000       3.77420092
2
Properties=species:S:1:pos:R:3:forces:R:3 energy=-0.8286753326760599 pbc="F F F"
Be       0.00000000       0.00000000       0.00000000       0.00000000       0.00000000      -2.68122053
Be       0.00000000       0.00000000       1.82606061       0.00000000       0.00000000       2.68122053
2
Properties=species:S:1:pos:R:3:forces:R:3 energy=-0.9590802827218923 pbc="F F F"
Be       0.00000000       0.00000000       0.00000000       0.00000000       0.00000000      -1.79073548
Be       0.00000000       0.00000000       1.88484848       0.00000000       0.00000000       1.79073548
2
Properties=species:S:1:pos:R:3:forces:R:3 energy=-1.0432283301512604 pbc="F F F"
Be       0.00000000       0.00000000       0.00000000       0.00000000       0.00000000      -1.10330105
Be       0.00000000       0.00000000       1.94363636       0.00000000       0.00000000       1.10330105
2
Properties=species:S:1:pos:R:3:forces:R:3 energy=-1.0920127693996817 pbc="F F F"
Be       0.00000000       0.00000000       0.00000000       0.00000000       0.00000000      -0.57969797
Be       0.00000000       0.00000000       2.00242424       0.00000000       0.00000000       0.57969797
2
Properties=species:S:1:pos:R:3:forces:R:3 energy=-1.1136961766700892 pbc="F F F"
Be       0.00000000       0.00000000       0.00000000       0.00000000       0.00000000      -0.17439835
Be       0.00000000       0.00000000       2.06121212       0.00000000       0.00000000       0.17439835
2
Properties=species:S:1:pos:R:3:forces:R:3 energy=-1.1141615684191737 pbc="F F F"
Be       0.00000000       0.00000000       0.00000000       0.00000000       0.00000000       0.14647064
Be       0.00000000       0.00000000       2.12000000       0.00000000       0.00000000      -0.14647064
2
Properties=species:S:1:pos:R:3:forces:R:3 energy=-1.0977608315992484 pbc="F F F"
Be       0.00000000       0.00000000       0.00000000       0.00000000       0.00000000       0.40135124
Be       0.00000000       0.00000000       2.17878788       0.00000000       0.00000000      -0.40135124
2
Properties=species:S:1:pos:R:3:forces:R:3 energy=-1.068115721388506 pbc="F F F"
Be       0.00000000       0.00000000       0.00000000       0.00000000       0.00000000       0.59771001
Be       0.00000000       0.00000000       2.23757576       0.00000000       0.00000000      -0.59771001
2
Properties=species:S:1:pos:R:3:forces:R:3 energy=-1.0285909456811608 pbc="F F F"
Be       0.00000000       0.00000000       0.00000000       0.00000000       0.00000000       0.73755425
Be       0.00000000       0.00000000       2.29636364       0.00000000       0.00000000      -0.73755425
2
Properties=species:S:1:pos:R:3:forces:R:3 energy=-0.9825052041190162 pbc="F F F"
Be       0.00000000       0.00000000       0.00000000       0.00000000       0.00000000       0.82092446
Be       0.00000000       0.00000000       2.35515152       0.00000000       0.00000000      -0.82092446
2
Properties=species:S:1:pos:R:3:forces:R:3 energy=-0.9331290596743349 pbc="F F F"
Be       0.00000000       0.00000000       0.00000000       0.00000000       0.00000000       0.85075808
Be       0.00000000       0.00000000       2.41393939       0.00000000       0.00000000      -0.85075808
2
Properties=species:S:1:pos:R:3:forces:R:3 energy=-0.8831873660072459 pbc="F F F"
Be       0.00000000       0.00000000       0.00000000       0.00000000       0.00000000       0.84516132
Be       0.00000000       0.00000000       2.47272727       0.00000000       0.00000000      -0.84516132
2
Properties=species:S:1:pos:R:3:forces:R:3 energy=-0.8337581156602968 pbc="F F F"
Be       0.00000000       0.00000000       0.00000000       0.00000000       0.00000000       0.83869398
Be       0.00000000       0.00000000       2.53151515       0.00000000       0.00000000      -0.83869398
2
Properties=species:S:1:pos:R:3:forces:R:3 energy=-0.7843167265906991 pbc="F F F"
Be       0.00000000       0.00000000       0.00000000       0.00000000       0.00000000       0.84426665
Be       0.00000000       0.00000000       2.59030303       0.00000000       0.00000000      -0.84426665
2
Properties=species:S:1:pos:R:3:forces:R:3 energy=-0.7345903229232422 pbc="F F F"
Be       0.00000000       0.00000000       0.00000000       0.00000000       0.00000000       0.84532839
Be       0.00000000       0.00000000       2.64909091       0.00000000       0.00000000      -0.84532839
2
Properties=species:S:1:pos:R:3:forces:R:3 energy=-0.6852169449642469 pbc="F F F"
Be       0.00000000       0.00000000       0.00000000       0.00000000       0.00000000       0.83201087
Be       0.00000000       0.00000000       2.70787879       0.00000000       0.00000000      -0.83201087
2
Properties=species:S:1:pos:R:3:forces:R:3 energy=-0.6369989812600814 pbc="F F F"
Be       0.00000000       0.00000000       0.00000000       0.00000000       0.00000000       0.80685443
Be       0.00000000       0.00000000       2.76666667       0.00000000       0.00000000      -0.80685443
2
Properties=species:S:1:pos:R:3:forces:R:3 energy=-0.5904855426683809 pbc="F F F"
Be       0.00000000       0.00000000       0.00000000       0.00000000       0.00000000       0.77471107
Be       0.00000000       0.00000000       2.82545455       0.00000000       0.00000000      -0.77471107
2
Properties=species:S:1:pos:R:3:forces:R:3 energy=-0.5459838050430914 pbc="F F F"
Be       0.00000000       0.00000000       0.00000000       0.00000000       0.00000000       0.73883867
Be       0.00000000       0.00000000       2.88424242       0.00000000       0.00000000      -0.73883867
2
Properties=species:S:1:pos:R:3:forces:R:3 energy=-0.5036547648016035 pbc="F F F"
Be       0.00000000       0.00000000       0.00000000       0.00000000       0.00000000       0.70098120
Be       0.00000000       0.00000000       2.94303030       0.00000000       0.00000000      -0.70098120
2
Properties=species:S:1:pos:R:3:forces:R:3 energy=-0.4635859938651953 pbc="F F F"
Be       0.00000000       0.00000000       0.00000000       0.00000000       0.00000000       0.66205060
Be       0.00000000       0.00000000       3.00181818       0.00000000       0.00000000      -0.66205060
2
Properties=species:S:1:pos:R:3:forces:R:3 energy=-0.4258241685924408 pbc="F F F"
Be       0.00000000       0.00000000       0.00000000       0.00000000       0.00000000       0.62257463
Be       0.00000000       0.00000000       3.06060606       0.00000000       0.00000000      -0.62257463
2
Properties=species:S:1:pos:R:3:forces:R:3 energy=-0.3903902044296025 pbc="F F F"
Be       0.00000000       0.00000000       0.00000000       0.00000000       0.00000000       0.58292127
Be       0.00000000       0.00000000       3.11939394       0.00000000       0.00000000      -0.58292127
2
Properties=species:S:1:pos:R:3:forces:R:3 energy=-0.3572841011191076 pbc="F F F"
Be       0.00000000       0.00000000       0.00000000       0.00000000       0.00000000       0.54338980
Be       0.00000000       0.00000000       3.17818182       0.00000000       0.00000000      -0.54338980
2
Properties=species:S:1:pos:R:3:forces:R:3 energy=-0.32649324961656173 pbc="F F F"
Be       0.00000000       0.00000000       0.00000000       0.00000000       0.00000000       0.50423694
Be       0.00000000       0.00000000       3.23696970       0.00000000       0.00000000      -0.50423694
2
Properties=species:S:1:pos:R:3:forces:R:3 energy=-0.297987143840756 pbc="F F F"
Be       0.00000000       0.00000000       0.00000000       0.00000000       0.00000000       0.46565467
Be       0.00000000       0.00000000       3.29575758       0.00000000       0.00000000      -0.46565467
2
Properties=species:S:1:pos:R:3:forces:R:3 energy=-0.2717295011215988 pbc="F F F"
Be       0.00000000       0.00000000       0.00000000       0.00000000       0.00000000       0.42775899
Be       0.00000000       0.00000000       3.35454545       0.00000000       0.00000000      -0.42775899
2
Properties=species:S:1:pos:R:3:forces:R:3 energy=-0.24767868879418564 pbc="F F F"
Be       0.00000000       0.00000000       0.00000000       0.00000000       0.00000000       0.39058885
Be       0.00000000       0.00000000       3.41333333       0.00000000       0.00000000      -0.39058885
2
Properties=species:S:1:pos:R:3:forces:R:3 energy=-0.22579158018378392 pbc="F F F"
Be       0.00000000       0.00000000       0.00000000       0.00000000       0.00000000       0.35414314
Be       0.00000000       0.00000000       3.47212121       0.00000000       0.00000000      -0.35414314
2
Properties=species:S:1:pos:R:3:forces:R:3 energy=-0.20602559500299608 pbc="F F F"
Be       0.00000000       0.00000000       0.00000000       0.00000000       0.00000000       0.31844819
Be       0.00000000       0.00000000       3.53090909       0.00000000       0.00000000      -0.31844819
2
Properties=species:S:1:pos:R:3:forces:R:3 energy=-0.18833299960458713 pbc="F F F"
Be       0.00000000       0.00000000       0.00000000       0.00000000       0.00000000       0.28361803
Be       0.00000000       0.00000000       3.58969697       0.00000000       0.00000000      -0.28361803
2
Properties=species:S:1:pos:R:3:forces:R:3 energy=-0.17265693224721523 pbc="F F F"
Be       0.00000000       0.00000000       0.00000000       0.00000000       0.00000000       0.24991308
Be       0.00000000       0.00000000       3.64848485       0.00000000       0.00000000      -0.24991308
2
Properties=species:S:1:pos:R:3:forces:R:3 energy=-0.1589195790949793 pbc="F F F"
Be       0.00000000       0.00000000       0.00000000       0.00000000       0.00000000       0.21773595
Be       0.00000000       0.00000000       3.70727273       0.00000000       0.00000000      -0.21773595
2
Properties=species:S:1:pos:R:3:forces:R:3 energy=-0.1470163075136226 pbc="F F F"
Be       0.00000000       0.00000000       0.00000000       0.00000000       0.00000000       0.18759906
Be       0.00000000       0.00000000       3.76606061       0.00000000       0.00000000      -0.18759906
2
Properties=species:S:1:pos:R:3:forces:R:3 energy=-0.13681154878426632 pbc="F F F"
Be       0.00000000       0.00000000       0.00000000       0.00000000       0.00000000       0.16005233
Be       0.00000000       0.00000000       3.82484848       0.00000000       0.00000000      -0.16005233
2
Properties=species:S:1:pos:R:3:forces:R:3 energy=-0.1281375358584217 pbc="F F F"
Be       0.00000000       0.00000000       0.00000000       0.00000000       0.00000000       0.13559136
Be       0.00000000       0.00000000       3.88363636       0.00000000       0.00000000      -0.13559136
2
Properties=species:S:1:pos:R:3:forces:R:3 energy=-0.12080147557722745 pbc="F F F"
Be       0.00000000       0.00000000       0.00000000       0.00000000       0.00000000       0.11458525
Be       0.00000000       0.00000000       3.94242424       0.00000000       0.00000000      -0.11458525
2
Properties=species:S:1:pos:R:3:forces:R:3 energy=-0.11459373675349399 pbc="F F F"
Be       0.00000000       0.00000000       0.00000000       0.00000000       0.00000000       0.09721775
Be       0.00000000       0.00000000       4.00121212       0.00000000       0.00000000      -0.09721775
2
Properties=species:S:1:pos:R:3:forces:R:3 energy=-0.10930005011694967 pbc="F F F"
Be       0.00000000       0.00000000       0.00000000       0.00000000       0.00000000       0.08346703
Be       0.00000000       0.00000000       4.06000000       0.00000000       0.00000000      -0.08346703
2
Properties=species:S:1:pos:R:3:forces:R:3 energy=-0.10471339041535144 pbc="F F F"
Be       0.00000000       0.00000000       0.00000000       0.00000000       0.00000000       0.07311284
Be       0.00000000       0.00000000       4.11878788       0.00000000       0.00000000      -0.07311284
2
Properties=species:S:1:pos:R:3:forces:R:3 energy=-0.10064476209435633 pbc="F F F"
Be       0.00000000       0.00000000       0.00000000       0.00000000       0.00000000       0.06576464
Be       0.00000000       0.00000000       4.17757576       0.00000000       0.00000000      -0.06576464
2
Properties=species:S:1:pos:R:3:forces:R:3 energy=-0.09693217284938108 pbc="F F F"
Be       0.00000000       0.00000000       0.00000000       0.00000000       0.00000000       0.06090596
Be       0.00000000       0.00000000       4.23636364       0.00000000       0.00000000      -0.06090596
2
Properties=species:S:1:pos:R:3:forces:R:3 energy=-0.09344646308546553 pbc="F F F"
Be       0.00000000       0.00000000       0.00000000       0.00000000       0.00000000       0.05794467
Be       0.00000000       0.00000000       4.29515152       0.00000000       0.00000000      -0.05794467
2
Properties=species:S:1:pos:R:3:forces:R:3 energy=-0.0900941701610598 pbc="F F F"
Be       0.00000000       0.00000000       0.00000000       0.00000000       0.00000000       0.05626905
Be       0.00000000       0.00000000       4.35393939       0.00000000       0.00000000      -0.05626905
2
Properties=species:S:1:pos:R:3:forces:R:3 energy=-0.08681677793226987 pbc="F F F"
Be       0.00000000       0.00000000       0.00000000       0.00000000       0.00000000       0.05530380
Be       0.00000000       0.00000000       4.41272727       0.00000000       0.00000000      -0.05530380
2
Properties=species:S:1:pos:R:3:forces:R:3 energy=-0.08358748618274406 pbc="F F F"
Be       0.00000000       0.00000000       0.00000000       0.00000000       0.00000000       0.05455896
Be       0.00000000       0.00000000       4.47151515       0.00000000       0.00000000      -0.05455896
2
Properties=species:S:1:pos:R:3:forces:R:3 energy=-0.08040481925545859 pbc="F F F"
Be       0.00000000       0.00000000       0.00000000       0.00000000       0.00000000       0.05367057
Be       0.00000000       0.00000000       4.53030303       0.00000000       0.00000000      -0.05367057
2
Properties=species:S:1:pos:R:3:forces:R:3 energy=-0.07728427793366904 pbc="F F F"
Be       0.00000000       0.00000000       0.00000000       0.00000000       0.00000000       0.05242439
Be       0.00000000       0.00000000       4.58909091       0.00000000       0.00000000      -0.05242439
2
Properties=species:S:1:pos:R:3:forces:R:3 energy=-0.07424928387067878 pbc="F F F"
Be       0.00000000       0.00000000       0.00000000       0.00000000       0.00000000       0.05076381
Be       0.00000000       0.00000000       4.64787879       0.00000000       0.00000000      -0.05076381
2
Properties=species:S:1:pos:R:3:forces:R:3 energy=-0.07132217130693694 pbc="F F F"
Be       0.00000000       0.00000000       0.00000000       0.00000000       0.00000000       0.04877634
Be       0.00000000       0.00000000       4.70666667       0.00000000       0.00000000      -0.04877634
2
Properties=species:S:1:pos:R:3:forces:R:3 energy=-0.06851687578512267 pbc="F F F"
Be       0.00000000       0.00000000       0.00000000       0.00000000       0.00000000       0.04666277
Be       0.00000000       0.00000000       4.76545455       0.00000000       0.00000000      -0.04666277
2
Properties=species:S:1:pos:R:3:forces:R:3 energy=-0.065832912612113 pbc="F F F"
Be       0.00000000       0.00000000       0.00000000       0.00000000       0.00000000       0.04469126
Be       0.00000000       0.00000000       4.82424242       0.00000000       0.00000000      -0.04469126
2
Properties=species:S:1:pos:R:3:forces:R:3 energy=-0.06325409913742629 pbc="F F F"
Be       0.00000000       0.00000000       0.00000000       0.00000000       0.00000000       0.04314015
Be       0.00000000       0.00000000       4.88303030       0.00000000       0.00000000      -0.04314015
2
Properties=species:S:1:pos:R:3:forces:R:3 energy=-0.06074796084815359 pbc="F F F"
Be       0.00000000       0.00000000       0.00000000       0.00000000       0.00000000       0.04223776
Be       0.00000000       0.00000000       4.94181818       0.00000000       0.00000000      -0.04223776
2
Properties=species:S:1:pos:R:3:forces:R:3 energy=-0.05827263101358079 pbc="F F F"
Be       0.00000000       0.00000000       0.00000000       0.00000000       0.00000000       0.04210444
Be       0.00000000       0.00000000       5.00060606       0.00000000       0.00000000      -0.04210444
2
Properties=species:S:1:pos:R:3:forces:R:3 energy=-0.05578339745367513 pbc="F F F"
Be       0.00000000       0.00000000       0.00000000       0.00000000       0.00000000       0.04267345
Be       0.00000000       0.00000000       5.05939394       0.00000000       0.00000000      -0.04267345
2
Properties=species:S:1:pos:R:3:forces:R:3 energy=-0.05324902916803248 pbc="F F F"
Be       0.00000000       0.00000000       0.00000000       0.00000000       0.00000000       0.04354386
Be       0.00000000       0.00000000       5.11818182       0.00000000       0.00000000      -0.04354386
2
Properties=species:S:1:pos:R:3:forces:R:3 energy=-0.05067579703422967 pbc="F F F"
Be       0.00000000       0.00000000       0.00000000       0.00000000       0.00000000       0.04378664
Be       0.00000000       0.00000000       5.17696970       0.00000000       0.00000000      -0.04378664
2
Properties=species:S:1:pos:R:3:forces:R:3 energy=-0.048139989225493035 pbc="F F F"
Be       0.00000000       0.00000000       0.00000000       0.00000000       0.00000000       0.04205197
Be       0.00000000       0.00000000       5.23575758       0.00000000       0.00000000      -0.04205197
2
Properties=species:S:1:pos:R:3:forces:R:3 energy=-0.04578541092593938 pbc="F F F"
Be       0.00000000       0.00000000       0.00000000       0.00000000       0.00000000       0.03764809
Be       0.00000000       0.00000000       5.29454545       0.00000000       0.00000000      -0.03764809
2
Properties=species:S:1:pos:R:3:forces:R:3 energy=-0.04374023485117924 pbc="F F F"
Be       0.00000000       0.00000000       0.00000000       0.00000000       0.00000000       0.03191858
Be       0.00000000       0.00000000       5.35333333       0.00000000       0.00000000      -0.03191858
2
Properties=species:S:1:pos:R:3:forces:R:3 energy=-0.042011725044449874 pbc="F F F"
Be       0.00000000       0.00000000       0.00000000       0.00000000       0.00000000       0.02716820
Be       0.00000000       0.00000000       5.41212121       0.00000000       0.00000000      -0.02716820
2
Properties=species:S:1:pos:R:3:forces:R:3 energy=-0.040520781962527695 pbc="F F F"
Be       0.00000000       0.00000000       0.00000000       0.00000000       0.00000000       0.02360032
Be       0.00000000       0.00000000       5.47090909       0.00000000       0.00000000      -0.02360032
2
Properties=species:S:1:pos:R:3:forces:R:3 energy=-0.03925976882797506 pbc="F F F"
Be       0.00000000       0.00000000       0.00000000       0.00000000       0.00000000       0.01885687
Be       0.00000000       0.00000000       5.52969697       0.00000000       0.00000000      -0.01885687
2
Properties=species:S:1:pos:R:3:forces:R:3 energy=-0.03837379960483191 pbc="F F F"
Be       0.00000000       0.00000000       0.00000000       0.00000000       0.00000000       0.01064936
Be       0.00000000       0.00000000       5.58848485       0.00000000       0.00000000      -0.01064936
2
Properties=species:S:1:pos:R:3:forces:R:3 energy=-0.03805970390501352 pbc="F F F"
Be       0.00000000       0.00000000       0.00000000       0.00000000       0.00000000      -0.00006322
Be       0.00000000       0.00000000       5.64727273       0.00000000       0.00000000       0.00006322
2
Properties=species:S:1:pos:R:3:forces:R:3 energy=-0.03833796527370679 pbc="F F F"
Be       0.00000000       0.00000000       0.00000000       0.00000000       0.00000000      -0.00857604
Be       0.00000000       0.00000000       5.70606061       0.00000000       0.00000000       0.00857604
2
Properties=species:S:1:pos:R:3:forces:R:3 energy=-0.03894419103067848 pbc="F F F"
Be       0.00000000       0.00000000       0.00000000       0.00000000       0.00000000      -0.01084401
Be       0.00000000       0.00000000       5.76484848       0.00000000       0.00000000       0.01084401
2
Properties=species:S:1:pos:R:3:forces:R:3 energy=-0.03950072975119666 pbc="F F F"
Be       0.00000000       0.00000000       0.00000000       0.00000000       0.00000000      -0.00742996
Be       0.00000000       0.00000000       5.82363636       0.00000000       0.00000000       0.00742996
2
Properties=species:S:1:pos:R:3:forces:R:3 energy=-0.0397738901243383 pbc="F F F"
Be       0.00000000       0.00000000       0.00000000       0.00000000       0.00000000      -0.00190055
Be       0.00000000       0.00000000       5.88242424       0.00000000       0.00000000       0.00190055
2
Properties=species:S:1:pos:R:3:forces:R:3 energy=-0.03974682593469793 pbc="F F F"
Be       0.00000000       0.00000000       0.00000000       0.00000000       0.00000000       0.00248390
Be       0.00000000       0.00000000       5.94121212       0.00000000       0.00000000      -0.00248390
2
Properties=species:S:1:pos:R:3:forces:R:3 energy=-0.039540342903273344 pbc="F F F"
Be       0.00000000       0.00000000       0.00000000       0.00000000       0.00000000       0.00395837
Be       0.00000000       0.00000000       6.00000000       0.00000000       0.00000000      -0.00395837
