2
Properties=species:S:1:pos:R:3:forces:R:3 energy=17269.468351869942 pbc="F F F"
Bi       0.00000000       0.00000000       0.00000000       0.00000000       0.00000000 -307238.71875000
Bi       0.00000000       0.00000000       0.18000000       0.00000000       0.00000000  307238.71875000
2
Properties=species:S:1:pos:R:3:forces:R:3 energy=6593.195402651191 pbc="F F F"
Bi       0.00000000       0.00000000       0.00000000       0.00000000       0.00000000 -100186.17187500
Bi       0.00000000       0.00000000       0.23878788       0.00000000       0.00000000  100186.17187500
2
Properties=species:S:1:pos:R:3:forces:R:3 energy=2843.571379216859 pbc="F F F"
Bi       0.00000000       0.00000000       0.00000000       0.00000000       0.00000000  -38404.07031250
Bi       0.00000000       0.00000000       0.29757576       0.00000000       0.00000000   38404.07031250
2
Properties=species:S:1:pos:R:3:forces:R:3 energy=1338.2151780449842 pbc="F F F"
Bi       0.00000000       0.00000000       0.00000000       0.00000000       0.00000000  -16287.65917969
Bi       0.00000000       0.00000000       0.35636364       0.00000000       0.00000000   16287.65917969
2
Properties=species:S:1:pos:R:3:forces:R:3 energy=678.1404710200698 pbc="F F F"
Bi       0.00000000       0.00000000       0.00000000       0.00000000       0.00000000   -7435.14306641
Bi       0.00000000       0.00000000       0.41515152       0.00000000       0.00000000    7435.14306641
2
Properties=species:S:1:pos:R:3:forces:R:3 energy=368.60302595804603 pbc="F F F"
Bi       0.00000000       0.00000000       0.00000000       0.00000000       0.00000000   -3601.73754883
Bi       0.00000000       0.00000000       0.47393939       0.00000000       0.00000000    3601.73754883
2
Properties=species:S:1:pos:R:3:forces:R:3 energy=215.2577653569358 pbc="F F F"
Bi       0.00000000       0.00000000       0.00000000       0.00000000       0.00000000   -1831.81860352
Bi       0.00000000       0.00000000       0.53272727       0.00000000       0.00000000    1831.81860352
2
Properties=species:S:1:pos:R:3:forces:R:3 energy=135.89115771626274 pbc="F F F"
Bi       0.00000000       0.00000000       0.00000000       0.00000000       0.00000000    -966.64599609
Bi       0.00000000       0.00000000       0.59151515       0.00000000       0.00000000     966.64599609
2
Properties=species:S:1:pos:R:3:forces:R:3 energy=93.51860679625679 pbc="F F F"
Bi       0.00000000       0.00000000       0.00000000       0.00000000       0.00000000    -522.22930908
Bi       0.00000000       0.00000000       0.65030303       0.00000000       0.00000000     522.22930908
2
Properties=species:S:1:pos:R:3:forces:R:3 energy=70.51094696334296 pbc="F F F"
Bi       0.00000000       0.00000000       0.00000000       0.00000000       0.00000000    -284.20068359
Bi       0.00000000       0.00000000       0.70909091       0.00000000       0.00000000     284.20068359
2
Properties=species:S:1:pos:R:3:forces:R:3 energy=58.10395320824995 pbc="F F F"
Bi       0.00000000       0.00000000       0.00000000       0.00000000       0.00000000    -149.89851379
Bi       0.00000000       0.00000000       0.76787879       0.00000000       0.00000000     149.89851379
2
Properties=species:S:1:pos:R:3:forces:R:3 energy=51.83707333757631 pbc="F F F"
Bi       0.00000000       0.00000000       0.00000000       0.00000000       0.00000000     -70.04589844
Bi       0.00000000       0.00000000       0.82666667       0.00000000       0.00000000      70.04589844
2
Properties=species:S:1:pos:R:3:forces:R:3 energy=49.22930837740906 pbc="F F F"
Bi       0.00000000       0.00000000       0.00000000       0.00000000       0.00000000     -23.15486908
Bi       0.00000000       0.00000000       0.88545455       0.00000000       0.00000000      23.15486908
2
Properties=species:S:1:pos:R:3:forces:R:3 energy=48.66055642437985 pbc="F F F"
Bi       0.00000000       0.00000000       0.00000000       0.00000000       0.00000000       0.45765150
Bi       0.00000000       0.00000000       0.94424242       0.00000000       0.00000000      -0.45765150
2
Properties=species:S:1:pos:R:3:forces:R:3 energy=48.94503030290351 pbc="F F F"
Bi       0.00000000       0.00000000       0.00000000       0.00000000       0.00000000       6.82361698
Bi       0.00000000       0.00000000       1.00303030       0.00000000       0.00000000      -6.82361698
2
Properties=species:S:1:pos:R:3:forces:R:3 energy=49.23503946871853 pbc="F F F"
Bi       0.00000000       0.00000000       0.00000000       0.00000000       0.00000000       1.53588128
Bi       0.00000000       0.00000000       1.06181818       0.00000000       0.00000000      -1.53588128
2
Properties=species:S:1:pos:R:3:forces:R:3 energy=48.995977029412835 pbc="F F F"
Bi       0.00000000       0.00000000       0.00000000       0.00000000       0.00000000     -10.36570740
Bi       0.00000000       0.00000000       1.12060606       0.00000000       0.00000000      10.36570740
2
Properties=species:S:1:pos:R:3:forces:R:3 energy=47.9865329192105 pbc="F F F"
Bi       0.00000000       0.00000000       0.00000000       0.00000000       0.00000000     -23.72016907
Bi       0.00000000       0.00000000       1.17939394       0.00000000       0.00000000      23.72016907
2
Properties=species:S:1:pos:R:3:forces:R:3 energy=46.29727574078061 pbc="F F F"
Bi       0.00000000       0.00000000       0.00000000       0.00000000       0.00000000     -32.74472427
Bi       0.00000000       0.00000000       1.23818182       0.00000000       0.00000000      32.74472427
2
Properties=species:S:1:pos:R:3:forces:R:3 energy=44.182874753268386 pbc="F F F"
Bi       0.00000000       0.00000000       0.00000000       0.00000000       0.00000000     -39.78440094
Bi       0.00000000       0.00000000       1.29696970       0.00000000       0.00000000      39.78440094
2
Properties=species:S:1:pos:R:3:forces:R:3 energy=41.494015165001755 pbc="F F F"
Bi       0.00000000       0.00000000       0.00000000       0.00000000       0.00000000     -52.53175735
Bi       0.00000000       0.00000000       1.35575758       0.00000000       0.00000000      52.53175735
2
Properties=species:S:1:pos:R:3:forces:R:3 energy=37.9918550573495 pbc="F F F"
Bi       0.00000000       0.00000000       0.00000000       0.00000000       0.00000000     -66.10166168
Bi       0.00000000       0.00000000       1.41454545       0.00000000       0.00000000      66.10166168
2
Properties=species:S:1:pos:R:3:forces:R:3 energy=33.827239127831305 pbc="F F F"
Bi       0.00000000       0.00000000       0.00000000       0.00000000       0.00000000     -74.44857788
Bi       0.00000000       0.00000000       1.47333333       0.00000000       0.00000000      74.44857788
2
Properties=species:S:1:pos:R:3:forces:R:3 energy=29.374541883305017 pbc="F F F"
Bi       0.00000000       0.00000000       0.00000000       0.00000000       0.00000000     -76.02458954
Bi       0.00000000       0.00000000       1.53212121       0.00000000       0.00000000      76.02458954
2
Properties=species:S:1:pos:R:3:forces:R:3 energy=24.964976489101748 pbc="F F F"
Bi       0.00000000       0.00000000       0.00000000       0.00000000       0.00000000     -73.71441650
Bi       0.00000000       0.00000000       1.59090909       0.00000000       0.00000000      73.71441650
2
Properties=species:S:1:pos:R:3:forces:R:3 energy=20.72217935250795 pbc="F F F"
Bi       0.00000000       0.00000000       0.00000000       0.00000000       0.00000000     -70.49144745
Bi       0.00000000       0.00000000       1.64969697       0.00000000       0.00000000      70.49144745
2
Properties=species:S:1:pos:R:3:forces:R:3 energy=16.70180328200117 pbc="F F F"
Bi       0.00000000       0.00000000       0.00000000       0.00000000       0.00000000     -66.03798676
Bi       0.00000000       0.00000000       1.70848485       0.00000000       0.00000000      66.03798676
2
Properties=species:S:1:pos:R:3:forces:R:3 energy=12.984634260175188 pbc="F F F"
Bi       0.00000000       0.00000000       0.00000000       0.00000000       0.00000000     -60.22371674
Bi       0.00000000       0.00000000       1.76727273       0.00000000       0.00000000      60.22371674
2
Properties=species:S:1:pos:R:3:forces:R:3 energy=9.639832032368135 pbc="F F F"
Bi       0.00000000       0.00000000       0.00000000       0.00000000       0.00000000     -53.44955444
Bi       0.00000000       0.00000000       1.82606061       0.00000000       0.00000000      53.44955444
2
Properties=species:S:1:pos:R:3:forces:R:3 energy=6.708710051902899 pbc="F F F"
Bi       0.00000000       0.00000000       0.00000000       0.00000000       0.00000000     -46.24357986
Bi       0.00000000       0.00000000       1.88484848       0.00000000       0.00000000      46.24357986
2
Properties=species:S:1:pos:R:3:forces:R:3 energy=4.201026643838452 pbc="F F F"
Bi       0.00000000       0.00000000       0.00000000       0.00000000       0.00000000     -39.11774445
Bi       0.00000000       0.00000000       1.94363636       0.00000000       0.00000000      39.11774445
2
Properties=species:S:1:pos:R:3:forces:R:3 energy=2.1007344246553727 pbc="F F F"
Bi       0.00000000       0.00000000       0.00000000       0.00000000       0.00000000     -32.43025589
Bi       0.00000000       0.00000000       2.00242424       0.00000000       0.00000000      32.43025589
2
Properties=species:S:1:pos:R:3:forces:R:3 energy=0.3750626671254737 pbc="F F F"
Bi       0.00000000       0.00000000       0.00000000       0.00000000       0.00000000     -26.40040970
Bi       0.00000000       0.00000000       2.06121212       0.00000000       0.00000000      26.40040970
2
Properties=species:S:1:pos:R:3:forces:R:3 energy=-1.0186066920278003 pbc="F F F"
Bi       0.00000000       0.00000000       0.00000000       0.00000000       0.00000000     -21.14758682
Bi       0.00000000       0.00000000       2.12000000       0.00000000       0.00000000      21.14758682
2
Properties=species:S:1:pos:R:3:forces:R:3 energy=-2.127059756016502 pbc="F F F"
Bi       0.00000000       0.00000000       0.00000000       0.00000000       0.00000000     -16.69287872
Bi       0.00000000       0.00000000       2.17878788       0.00000000       0.00000000      16.69287872
2
Properties=species:S:1:pos:R:3:forces:R:3 energy=-2.9960132288585704 pbc="F F F"
Bi       0.00000000       0.00000000       0.00000000       0.00000000       0.00000000     -12.98872280
Bi       0.00000000       0.00000000       2.23757576       0.00000000       0.00000000      12.98872280
2
Properties=species:S:1:pos:R:3:forces:R:3 energy=-3.6674002994550294 pbc="F F F"
Bi       0.00000000       0.00000000       0.00000000       0.00000000       0.00000000      -9.95671558
Bi       0.00000000       0.00000000       2.29636364       0.00000000       0.00000000       9.95671558
2
Properties=species:S:1:pos:R:3:forces:R:3 energy=-4.177909641047649 pbc="F F F"
Bi       0.00000000       0.00000000       0.00000000       0.00000000       0.00000000      -7.49715233
Bi       0.00000000       0.00000000       2.35515152       0.00000000       0.00000000       7.49715233
2
Properties=species:S:1:pos:R:3:forces:R:3 energy=-4.557830708858671 pbc="F F F"
Bi       0.00000000       0.00000000       0.00000000       0.00000000       0.00000000      -5.49424553
Bi       0.00000000       0.00000000       2.41393939       0.00000000       0.00000000       5.49424553
2
Properties=species:S:1:pos:R:3:forces:R:3 energy=-4.8306770514071165 pbc="F F F"
Bi       0.00000000       0.00000000       0.00000000       0.00000000       0.00000000      -3.83820629
Bi       0.00000000       0.00000000       2.47272727       0.00000000       0.00000000       3.83820629
2
Properties=species:S:1:pos:R:3:forces:R:3 energy=-5.01433261753364 pbc="F F F"
Bi       0.00000000       0.00000000       0.00000000       0.00000000       0.00000000      -2.45014715
Bi       0.00000000       0.00000000       2.53151515       0.00000000       0.00000000       2.45014715
2
Properties=species:S:1:pos:R:3:forces:R:3 energy=-5.12322807603661 pbc="F F F"
Bi       0.00000000       0.00000000       0.00000000       0.00000000       0.00000000      -1.29128957
Bi       0.00000000       0.00000000       2.59030303       0.00000000       0.00000000       1.29128957
2
Properties=species:S:1:pos:R:3:forces:R:3 energy=-5.170439821164302 pbc="F F F"
Bi       0.00000000       0.00000000       0.00000000       0.00000000       0.00000000      -0.35111490
Bi       0.00000000       0.00000000       2.64909091       0.00000000       0.00000000       0.35111490
2
Properties=species:S:1:pos:R:3:forces:R:3 energy=-5.1686970716999525 pbc="F F F"
Bi       0.00000000       0.00000000       0.00000000       0.00000000       0.00000000       0.37590584
Bi       0.00000000       0.00000000       2.70787879       0.00000000       0.00000000      -0.37590584
2
Properties=species:S:1:pos:R:3:forces:R:3 energy=-5.130051928158683 pbc="F F F"
Bi       0.00000000       0.00000000       0.00000000       0.00000000       0.00000000       0.90913504
Bi       0.00000000       0.00000000       2.76666667       0.00000000       0.00000000      -0.90913504
2
Properties=species:S:1:pos:R:3:forces:R:3 energy=-5.064897561910938 pbc="F F F"
Bi       0.00000000       0.00000000       0.00000000       0.00000000       0.00000000       1.28473067
Bi       0.00000000       0.00000000       2.82545455       0.00000000       0.00000000      -1.28473067
2
Properties=species:S:1:pos:R:3:forces:R:3 energy=-4.981263904525064 pbc="F F F"
Bi       0.00000000       0.00000000       0.00000000       0.00000000       0.00000000       1.54442215
Bi       0.00000000       0.00000000       2.88424242       0.00000000       0.00000000      -1.54442215
2
Properties=species:S:1:pos:R:3:forces:R:3 energy=-4.884904520829122 pbc="F F F"
Bi       0.00000000       0.00000000       0.00000000       0.00000000       0.00000000       1.72236609
Bi       0.00000000       0.00000000       2.94303030       0.00000000       0.00000000      -1.72236609
2
Properties=species:S:1:pos:R:3:forces:R:3 energy=-4.77992596743545 pbc="F F F"
Bi       0.00000000       0.00000000       0.00000000       0.00000000       0.00000000       1.84026408
Bi       0.00000000       0.00000000       3.00181818       0.00000000       0.00000000      -1.84026408
2
Properties=species:S:1:pos:R:3:forces:R:3 energy=-4.669463057513124 pbc="F F F"
Bi       0.00000000       0.00000000       0.00000000       0.00000000       0.00000000       1.91062343
Bi       0.00000000       0.00000000       3.06060606       0.00000000       0.00000000      -1.91062343
2
Properties=species:S:1:pos:R:3:forces:R:3 energy=-4.5560519216758895 pbc="F F F"
Bi       0.00000000       0.00000000       0.00000000       0.00000000       0.00000000       1.94175637
Bi       0.00000000       0.00000000       3.11939394       0.00000000       0.00000000      -1.94175637
2
Properties=species:S:1:pos:R:3:forces:R:3 energy=-4.441797895843534 pbc="F F F"
Bi       0.00000000       0.00000000       0.00000000       0.00000000       0.00000000       1.94019485
Bi       0.00000000       0.00000000       3.17818182       0.00000000       0.00000000      -1.94019485
2
Properties=species:S:1:pos:R:3:forces:R:3 energy=-4.328473868409888 pbc="F F F"
Bi       0.00000000       0.00000000       0.00000000       0.00000000       0.00000000       1.91090763
Bi       0.00000000       0.00000000       3.23696970       0.00000000       0.00000000      -1.91090763
2
Properties=species:S:1:pos:R:3:forces:R:3 energy=-4.217595834261887 pbc="F F F"
Bi       0.00000000       0.00000000       0.00000000       0.00000000       0.00000000       1.85750520
Bi       0.00000000       0.00000000       3.29575758       0.00000000       0.00000000      -1.85750520
2
Properties=species:S:1:pos:R:3:forces:R:3 energy=-4.110484412948777 pbc="F F F"
Bi       0.00000000       0.00000000       0.00000000       0.00000000       0.00000000       1.78332531
Bi       0.00000000       0.00000000       3.35454545       0.00000000       0.00000000      -1.78332531
2
Properties=species:S:1:pos:R:3:forces:R:3 energy=-4.008243254633791 pbc="F F F"
Bi       0.00000000       0.00000000       0.00000000       0.00000000       0.00000000       1.69263530
Bi       0.00000000       0.00000000       3.41333333       0.00000000       0.00000000      -1.69263530
2
Properties=species:S:1:pos:R:3:forces:R:3 energy=-3.911687264422318 pbc="F F F"
Bi       0.00000000       0.00000000       0.00000000       0.00000000       0.00000000       1.59091818
Bi       0.00000000       0.00000000       3.47212121       0.00000000       0.00000000      -1.59091818
2
Properties=species:S:1:pos:R:3:forces:R:3 energy=-3.8212883167448792 pbc="F F F"
Bi       0.00000000       0.00000000       0.00000000       0.00000000       0.00000000       1.48421192
Bi       0.00000000       0.00000000       3.53090909       0.00000000       0.00000000      -1.48421192
2
Properties=species:S:1:pos:R:3:forces:R:3 energy=-3.7371672039048445 pbc="F F F"
Bi       0.00000000       0.00000000       0.00000000       0.00000000       0.00000000       1.37811625
Bi       0.00000000       0.00000000       3.58969697       0.00000000       0.00000000      -1.37811625
2
Properties=species:S:1:pos:R:3:forces:R:3 energy=-3.6591552417296995 pbc="F F F"
Bi       0.00000000       0.00000000       0.00000000       0.00000000       0.00000000       1.27701581
Bi       0.00000000       0.00000000       3.64848485       0.00000000       0.00000000      -1.27701581
2
Properties=species:S:1:pos:R:3:forces:R:3 energy=-3.5868680428598525 pbc="F F F"
Bi       0.00000000       0.00000000       0.00000000       0.00000000       0.00000000       1.18371069
Bi       0.00000000       0.00000000       3.70727273       0.00000000       0.00000000      -1.18371069
2
Properties=species:S:1:pos:R:3:forces:R:3 energy=-3.5197975057813737 pbc="F F F"
Bi       0.00000000       0.00000000       0.00000000       0.00000000       0.00000000       1.09965014
Bi       0.00000000       0.00000000       3.76606061       0.00000000       0.00000000      -1.09965014
2
Properties=species:S:1:pos:R:3:forces:R:3 energy=-3.457382997668201 pbc="F F F"
Bi       0.00000000       0.00000000       0.00000000       0.00000000       0.00000000       1.02541363
Bi       0.00000000       0.00000000       3.82484848       0.00000000       0.00000000      -1.02541363
2
Properties=species:S:1:pos:R:3:forces:R:3 energy=-3.3990433035906897 pbc="F F F"
Bi       0.00000000       0.00000000       0.00000000       0.00000000       0.00000000       0.96087468
Bi       0.00000000       0.00000000       3.88363636       0.00000000       0.00000000      -0.96087468
2
Properties=species:S:1:pos:R:3:forces:R:3 energy=-3.3442316464571538 pbc="F F F"
Bi       0.00000000       0.00000000       0.00000000       0.00000000       0.00000000       0.90522599
Bi       0.00000000       0.00000000       3.94242424       0.00000000       0.00000000      -0.90522599
2
Properties=species:S:1:pos:R:3:forces:R:3 energy=-3.2924661095246575 pbc="F F F"
Bi       0.00000000       0.00000000       0.00000000       0.00000000       0.00000000       0.85699606
Bi       0.00000000       0.00000000       4.00121212       0.00000000       0.00000000      -0.85699606
2
Properties=species:S:1:pos:R:3:forces:R:3 energy=-3.2433629074539843 pbc="F F F"
Bi       0.00000000       0.00000000       0.00000000       0.00000000       0.00000000       0.81424344
Bi       0.00000000       0.00000000       4.06000000       0.00000000       0.00000000      -0.81424344
2
Properties=species:S:1:pos:R:3:forces:R:3 energy=-3.1966641719136066 pbc="F F F"
Bi       0.00000000       0.00000000       0.00000000       0.00000000       0.00000000       0.77487481
Bi       0.00000000       0.00000000       4.11878788       0.00000000       0.00000000      -0.77487481
2
Properties=species:S:1:pos:R:3:forces:R:3 energy=-3.1522284535224525 pbc="F F F"
Bi       0.00000000       0.00000000       0.00000000       0.00000000       0.00000000       0.73693854
Bi       0.00000000       0.00000000       4.17757576       0.00000000       0.00000000      -0.73693854
2
Properties=species:S:1:pos:R:3:forces:R:3 energy=-3.1100202709502778 pbc="F F F"
Bi       0.00000000       0.00000000       0.00000000       0.00000000       0.00000000       0.69888175
Bi       0.00000000       0.00000000       4.23636364       0.00000000       0.00000000      -0.69888175
2
Properties=species:S:1:pos:R:3:forces:R:3 energy=-3.0700788035600595 pbc="F F F"
Bi       0.00000000       0.00000000       0.00000000       0.00000000       0.00000000       0.65969169
Bi       0.00000000       0.00000000       4.29515152       0.00000000       0.00000000      -0.65969169
2
Properties=species:S:1:pos:R:3:forces:R:3 energy=-3.032487830828177 pbc="F F F"
Bi       0.00000000       0.00000000       0.00000000       0.00000000       0.00000000       0.61894900
Bi       0.00000000       0.00000000       4.35393939       0.00000000       0.00000000      -0.61894900
2
Properties=species:S:1:pos:R:3:forces:R:3 energy=-2.997334822551294 pbc="F F F"
Bi       0.00000000       0.00000000       0.00000000       0.00000000       0.00000000       0.57675570
Bi       0.00000000       0.00000000       4.41272727       0.00000000       0.00000000      -0.57675570
2
Properties=species:S:1:pos:R:3:forces:R:3 energy=-2.96469295841852 pbc="F F F"
Bi       0.00000000       0.00000000       0.00000000       0.00000000       0.00000000       0.53363532
Bi       0.00000000       0.00000000       4.47151515       0.00000000       0.00000000      -0.53363532
2
Properties=species:S:1:pos:R:3:forces:R:3 energy=-2.934595127715001 pbc="F F F"
Bi       0.00000000       0.00000000       0.00000000       0.00000000       0.00000000       0.49035436
Bi       0.00000000       0.00000000       4.53030303       0.00000000       0.00000000      -0.49035436
2
Properties=species:S:1:pos:R:3:forces:R:3 energy=-2.90702552448303 pbc="F F F"
Bi       0.00000000       0.00000000       0.00000000       0.00000000       0.00000000       0.44779164
Bi       0.00000000       0.00000000       4.58909091       0.00000000       0.00000000      -0.44779164
2
Properties=species:S:1:pos:R:3:forces:R:3 energy=-2.8819159120203337 pbc="F F F"
Bi       0.00000000       0.00000000       0.00000000       0.00000000       0.00000000       0.40678722
Bi       0.00000000       0.00000000       4.64787879       0.00000000       0.00000000      -0.40678722
2
Properties=species:S:1:pos:R:3:forces:R:3 energy=-2.859151695050245 pbc="F F F"
Bi       0.00000000       0.00000000       0.00000000       0.00000000       0.00000000       0.36807224
Bi       0.00000000       0.00000000       4.70666667       0.00000000       0.00000000      -0.36807224
2
Properties=species:S:1:pos:R:3:forces:R:3 energy=-2.8385828362911862 pbc="F F F"
Bi       0.00000000       0.00000000       0.00000000       0.00000000       0.00000000       0.33222014
Bi       0.00000000       0.00000000       4.76545455       0.00000000       0.00000000      -0.33222014
2
Properties=species:S:1:pos:R:3:forces:R:3 energy=-2.8200269368912645 pbc="F F F"
Bi       0.00000000       0.00000000       0.00000000       0.00000000       0.00000000       0.29960224
Bi       0.00000000       0.00000000       4.82424242       0.00000000       0.00000000      -0.29960224
2
Properties=species:S:1:pos:R:3:forces:R:3 energy=-2.803291088574175 pbc="F F F"
Bi       0.00000000       0.00000000       0.00000000       0.00000000       0.00000000       0.27038360
Bi       0.00000000       0.00000000       4.88303030       0.00000000       0.00000000      -0.27038360
2
Properties=species:S:1:pos:R:3:forces:R:3 energy=-2.7881717564297777 pbc="F F F"
Bi       0.00000000       0.00000000       0.00000000       0.00000000       0.00000000       0.24447711
Bi       0.00000000       0.00000000       4.94181818       0.00000000       0.00000000      -0.24447711
2
Properties=species:S:1:pos:R:3:forces:R:3 energy=-2.7744857860006737 pbc="F F F"
Bi       0.00000000       0.00000000       0.00000000       0.00000000       0.00000000       0.22156444
Bi       0.00000000       0.00000000       5.00060606       0.00000000       0.00000000      -0.22156444
2
Properties=species:S:1:pos:R:3:forces:R:3 energy=-2.7620715367703883 pbc="F F F"
Bi       0.00000000       0.00000000       0.00000000       0.00000000       0.00000000       0.20114696
Bi       0.00000000       0.00000000       5.05939394       0.00000000       0.00000000      -0.20114696
2
Properties=species:S:1:pos:R:3:forces:R:3 energy=-2.750797123859419 pbc="F F F"
Bi       0.00000000       0.00000000       0.00000000       0.00000000       0.00000000       0.18271248
Bi       0.00000000       0.00000000       5.11818182       0.00000000       0.00000000      -0.18271248
2
Properties=species:S:1:pos:R:3:forces:R:3 energy=-2.740553977555781 pbc="F F F"
Bi       0.00000000       0.00000000       0.00000000       0.00000000       0.00000000       0.16611795
Bi       0.00000000       0.00000000       5.17696970       0.00000000       0.00000000      -0.16611795
2
Properties=species:S:1:pos:R:3:forces:R:3 energy=-2.7312210298429838 pbc="F F F"
Bi       0.00000000       0.00000000       0.00000000       0.00000000       0.00000000       0.15187976
Bi       0.00000000       0.00000000       5.23575758       0.00000000       0.00000000      -0.15187976
2
Properties=species:S:1:pos:R:3:forces:R:3 energy=-2.722634939004134 pbc="F F F"
Bi       0.00000000       0.00000000       0.00000000       0.00000000       0.00000000       0.14079115
Bi       0.00000000       0.00000000       5.29454545       0.00000000       0.00000000      -0.14079115
2
Properties=species:S:1:pos:R:3:forces:R:3 energy=-2.7146074403252327 pbc="F F F"
Bi       0.00000000       0.00000000       0.00000000       0.00000000       0.00000000       0.13268889
Bi       0.00000000       0.00000000       5.35333333       0.00000000       0.00000000      -0.13268889
2
Properties=species:S:1:pos:R:3:forces:R:3 energy=-2.707004979484507 pbc="F F F"
Bi       0.00000000       0.00000000       0.00000000       0.00000000       0.00000000       0.12601599
Bi       0.00000000       0.00000000       5.41212121       0.00000000       0.00000000      -0.12601599
2
Properties=species:S:1:pos:R:3:forces:R:3 energy=-2.699796184776137 pbc="F F F"
Bi       0.00000000       0.00000000       0.00000000       0.00000000       0.00000000       0.11911508
Bi       0.00000000       0.00000000       5.47090909       0.00000000       0.00000000      -0.11911508
2
Properties=species:S:1:pos:R:3:forces:R:3 energy=-2.6930139395492505 pbc="F F F"
Bi       0.00000000       0.00000000       0.00000000       0.00000000       0.00000000       0.11152928
Bi       0.00000000       0.00000000       5.52969697       0.00000000       0.00000000      -0.11152928
2
Properties=species:S:1:pos:R:3:forces:R:3 energy=-2.686686990921759 pbc="F F F"
Bi       0.00000000       0.00000000       0.00000000       0.00000000       0.00000000       0.10369967
Bi       0.00000000       0.00000000       5.58848485       0.00000000       0.00000000      -0.10369967
2
Properties=species:S:1:pos:R:3:forces:R:3 energy=-2.6808376194475483 pbc="F F F"
Bi       0.00000000       0.00000000       0.00000000       0.00000000       0.00000000       0.09497026
Bi       0.00000000       0.00000000       5.64727273       0.00000000       0.00000000      -0.09497026
2
Properties=species:S:1:pos:R:3:forces:R:3 energy=-2.675591273648995 pbc="F F F"
Bi       0.00000000       0.00000000       0.00000000       0.00000000       0.00000000       0.08278200
Bi       0.00000000       0.00000000       5.70606061       0.00000000       0.00000000      -0.08278200
2
Properties=species:S:1:pos:R:3:forces:R:3 energy=-2.671196892616991 pbc="F F F"
Bi       0.00000000       0.00000000       0.00000000       0.00000000       0.00000000       0.06574456
Bi       0.00000000       0.00000000       5.76484848       0.00000000       0.00000000      -0.06574456
2
Properties=species:S:1:pos:R:3:forces:R:3 energy=-2.667913005286577 pbc="F F F"
Bi       0.00000000       0.00000000       0.00000000       0.00000000       0.00000000       0.04601293
Bi       0.00000000       0.00000000       5.82363636       0.00000000       0.00000000      -0.04601293
2
Properties=species:S:1:pos:R:3:forces:R:3 energy=-2.6657630765448275 pbc="F F F"
Bi       0.00000000       0.00000000       0.00000000       0.00000000       0.00000000       0.02787212
Bi       0.00000000       0.00000000       5.88242424       0.00000000       0.00000000      -0.02787212
2
Properties=species:S:1:pos:R:3:forces:R:3 energy=-2.6645300885438865 pbc="F F F"
Bi       0.00000000       0.00000000       0.00000000       0.00000000       0.00000000       0.01511652
Bi       0.00000000       0.00000000       5.94121212       0.00000000       0.00000000      -0.01511652
2
Properties=species:S:1:pos:R:3:forces:R:3 energy=-2.663829522128749 pbc="F F F"
Bi       0.00000000       0.00000000       0.00000000       0.00000000       0.00000000       0.01019728
Bi       0.00000000       0.00000000       6.00000000       0.00000000       0.00000000      -0.01019728
