2
Properties=species:S:1:pos:R:3:forces:R:3 energy=1283.458904611644 pbc="F F F"
C        0.00000000       0.00000000       0.00000000       0.00000000       0.00000000  -23990.14843750
C        0.00000000       0.00000000       0.10000000       0.00000000       0.00000000   23990.14843750
2
Properties=species:S:1:pos:R:3:forces:R:3 energy=501.1589473362533 pbc="F F F"
C        0.00000000       0.00000000       0.00000000       0.00000000       0.00000000   -6765.97167969
C        0.00000000       0.00000000       0.15959596       0.00000000       0.00000000    6765.97167969
2
Properties=species:S:1:pos:R:3:forces:R:3 energy=246.72921406147 pbc="F F F"
C        0.00000000       0.00000000       0.00000000       0.00000000       0.00000000   -2579.76586914
C        0.00000000       0.00000000       0.21919192       0.00000000       0.00000000    2579.76586914
2
Properties=species:S:1:pos:R:3:forces:R:3 energy=142.39521442926485 pbc="F F F"
C        0.00000000       0.00000000       0.00000000       0.00000000       0.00000000   -1145.07006836
C        0.00000000       0.00000000       0.27878788       0.00000000       0.00000000    1145.07006836
2
Properties=species:S:1:pos:R:3:forces:R:3 energy=94.3556178779833 pbc="F F F"
C        0.00000000       0.00000000       0.00000000       0.00000000       0.00000000    -545.53308105
C        0.00000000       0.00000000       0.33838384       0.00000000       0.00000000     545.53308105
2
Properties=species:S:1:pos:R:3:forces:R:3 energy=71.25238455642008 pbc="F F F"
C        0.00000000       0.00000000       0.00000000       0.00000000       0.00000000    -263.52938843
C        0.00000000       0.00000000       0.39797980       0.00000000       0.00000000     263.52938843
2
Properties=species:S:1:pos:R:3:forces:R:3 energy=59.933185979699864 pbc="F F F"
C        0.00000000       0.00000000       0.00000000       0.00000000       0.00000000    -137.09771729
C        0.00000000       0.00000000       0.45757576       0.00000000       0.00000000     137.09771729
2
Properties=species:S:1:pos:R:3:forces:R:3 energy=52.71272705551348 pbc="F F F"
C        0.00000000       0.00000000       0.00000000       0.00000000       0.00000000    -120.61508179
C        0.00000000       0.00000000       0.51717172       0.00000000       0.00000000     120.61508179
2
Properties=species:S:1:pos:R:3:forces:R:3 energy=44.30803355970381 pbc="F F F"
C        0.00000000       0.00000000       0.00000000       0.00000000       0.00000000    -166.05291748
C        0.00000000       0.00000000       0.57676768       0.00000000       0.00000000     166.05291748
2
Properties=species:S:1:pos:R:3:forces:R:3 energy=33.15233687137319 pbc="F F F"
C        0.00000000       0.00000000       0.00000000       0.00000000       0.00000000    -200.25274658
C        0.00000000       0.00000000       0.63636364       0.00000000       0.00000000     200.25274658
2
Properties=species:S:1:pos:R:3:forces:R:3 energy=21.624226657078527 pbc="F F F"
C        0.00000000       0.00000000       0.00000000       0.00000000       0.00000000    -179.49276733
C        0.00000000       0.00000000       0.69595960       0.00000000       0.00000000     179.49276733
2
Properties=species:S:1:pos:R:3:forces:R:3 energy=12.112282331344549 pbc="F F F"
C        0.00000000       0.00000000       0.00000000       0.00000000       0.00000000    -138.87316895
C        0.00000000       0.00000000       0.75555556       0.00000000       0.00000000     138.87316895
2
Properties=species:S:1:pos:R:3:forces:R:3 energy=5.020888570564813 pbc="F F F"
C        0.00000000       0.00000000       0.00000000       0.00000000       0.00000000    -100.58983612
C        0.00000000       0.00000000       0.81515152       0.00000000       0.00000000     100.58983612
2
Properties=species:S:1:pos:R:3:forces:R:3 energy=-0.09419153827089172 pbc="F F F"
C        0.00000000       0.00000000       0.00000000       0.00000000       0.00000000     -72.82523346
C        0.00000000       0.00000000       0.87474747       0.00000000       0.00000000      72.82523346
2
Properties=species:S:1:pos:R:3:forces:R:3 energy=-3.8138893252225046 pbc="F F F"
C        0.00000000       0.00000000       0.00000000       0.00000000       0.00000000     -52.78293610
C        0.00000000       0.00000000       0.93434343       0.00000000       0.00000000      52.78293610
2
Properties=species:S:1:pos:R:3:forces:R:3 energy=-6.438162178970255 pbc="F F F"
C        0.00000000       0.00000000       0.00000000       0.00000000       0.00000000     -35.64337158
C        0.00000000       0.00000000       0.99393939       0.00000000       0.00000000      35.64337158
2
Properties=species:S:1:pos:R:3:forces:R:3 energy=-8.131613419214661 pbc="F F F"
C        0.00000000       0.00000000       0.00000000       0.00000000       0.00000000     -22.00239372
C        0.00000000       0.00000000       1.05353535       0.00000000       0.00000000      22.00239372
2
Properties=species:S:1:pos:R:3:forces:R:3 energy=-9.159197912350407 pbc="F F F"
C        0.00000000       0.00000000       0.00000000       0.00000000       0.00000000     -13.16953945
C        0.00000000       0.00000000       1.11313131       0.00000000       0.00000000      13.16953945
2
Properties=species:S:1:pos:R:3:forces:R:3 energy=-9.756874503924694 pbc="F F F"
C        0.00000000       0.00000000       0.00000000       0.00000000       0.00000000      -7.16271782
C        0.00000000       0.00000000       1.17272727       0.00000000       0.00000000       7.16271782
2
Properties=species:S:1:pos:R:3:forces:R:3 energy=-10.034605418145855 pbc="F F F"
C        0.00000000       0.00000000       0.00000000       0.00000000       0.00000000      -2.31409931
C        0.00000000       0.00000000       1.23232323       0.00000000       0.00000000       2.31409931
2
Properties=species:S:1:pos:R:3:forces:R:3 energy=-10.054495594676325 pbc="F F F"
C        0.00000000       0.00000000       0.00000000       0.00000000       0.00000000       1.43897724
C        0.00000000       0.00000000       1.29191919       0.00000000       0.00000000      -1.43897724
2
Properties=species:S:1:pos:R:3:forces:R:3 energy=-9.887740449031591 pbc="F F F"
C        0.00000000       0.00000000       0.00000000       0.00000000       0.00000000       3.96674728
C        0.00000000       0.00000000       1.35151515       0.00000000       0.00000000      -3.96674728
2
Properties=species:S:1:pos:R:3:forces:R:3 energy=-9.60113433072501 pbc="F F F"
C        0.00000000       0.00000000       0.00000000       0.00000000       0.00000000       5.51619816
C        0.00000000       0.00000000       1.41111111       0.00000000       0.00000000      -5.51619816
2
Properties=species:S:1:pos:R:3:forces:R:3 energy=-9.24368687649109 pbc="F F F"
C        0.00000000       0.00000000       0.00000000       0.00000000       0.00000000       6.38409758
C        0.00000000       0.00000000       1.47070707       0.00000000       0.00000000      -6.38409758
2
Properties=species:S:1:pos:R:3:forces:R:3 energy=-8.85026342748961 pbc="F F F"
C        0.00000000       0.00000000       0.00000000       0.00000000       0.00000000       6.74473524
C        0.00000000       0.00000000       1.53030303       0.00000000       0.00000000      -6.74473524
2
Properties=species:S:1:pos:R:3:forces:R:3 energy=-8.446785785988178 pbc="F F F"
C        0.00000000       0.00000000       0.00000000       0.00000000       0.00000000       6.75520515
C        0.00000000       0.00000000       1.58989899       0.00000000       0.00000000      -6.75520515
2
Properties=species:S:1:pos:R:3:forces:R:3 energy=-8.04711476806349 pbc="F F F"
C        0.00000000       0.00000000       0.00000000       0.00000000       0.00000000       6.66581535
C        0.00000000       0.00000000       1.64949495       0.00000000       0.00000000      -6.66581535
2
Properties=species:S:1:pos:R:3:forces:R:3 energy=-7.6487023833859045 pbc="F F F"
C        0.00000000       0.00000000       0.00000000       0.00000000       0.00000000       6.74996948
C        0.00000000       0.00000000       1.70909091       0.00000000       0.00000000      -6.74996948
2
Properties=species:S:1:pos:R:3:forces:R:3 energy=-7.236798749062851 pbc="F F F"
C        0.00000000       0.00000000       0.00000000       0.00000000       0.00000000       7.11685991
C        0.00000000       0.00000000       1.76868687       0.00000000       0.00000000      -7.11685991
2
Properties=species:S:1:pos:R:3:forces:R:3 energy=-6.796864246543322 pbc="F F F"
C        0.00000000       0.00000000       0.00000000       0.00000000       0.00000000       7.65990353
C        0.00000000       0.00000000       1.82828283       0.00000000       0.00000000      -7.65990353
2
Properties=species:S:1:pos:R:3:forces:R:3 energy=-6.324545958658377 pbc="F F F"
C        0.00000000       0.00000000       0.00000000       0.00000000       0.00000000       8.16582870
C        0.00000000       0.00000000       1.88787879       0.00000000       0.00000000      -8.16582870
2
Properties=species:S:1:pos:R:3:forces:R:3 energy=-5.828529335433959 pbc="F F F"
C        0.00000000       0.00000000       0.00000000       0.00000000       0.00000000       8.42410564
C        0.00000000       0.00000000       1.94747475       0.00000000       0.00000000      -8.42410564
2
Properties=species:S:1:pos:R:3:forces:R:3 energy=-5.328249231799841 pbc="F F F"
C        0.00000000       0.00000000       0.00000000       0.00000000       0.00000000       8.29401302
C        0.00000000       0.00000000       2.00707071       0.00000000       0.00000000      -8.29401302
2
Properties=species:S:1:pos:R:3:forces:R:3 energy=-4.848368399279219 pbc="F F F"
C        0.00000000       0.00000000       0.00000000       0.00000000       0.00000000       7.74410439
C        0.00000000       0.00000000       2.06666667       0.00000000       0.00000000      -7.74410439
2
Properties=species:S:1:pos:R:3:forces:R:3 energy=-4.412017455667357 pbc="F F F"
C        0.00000000       0.00000000       0.00000000       0.00000000       0.00000000       6.85429764
C        0.00000000       0.00000000       2.12626263       0.00000000       0.00000000      -6.85429764
2
Properties=species:S:1:pos:R:3:forces:R:3 energy=-4.035117706131152 pbc="F F F"
C        0.00000000       0.00000000       0.00000000       0.00000000       0.00000000       5.77685642
C        0.00000000       0.00000000       2.18585859       0.00000000       0.00000000      -5.77685642
2
Properties=species:S:1:pos:R:3:forces:R:3 energy=-3.7240327930876993 pbc="F F F"
C        0.00000000       0.00000000       0.00000000       0.00000000       0.00000000       4.66916752
C        0.00000000       0.00000000       2.24545455       0.00000000       0.00000000      -4.66916752
2
Properties=species:S:1:pos:R:3:forces:R:3 energy=-3.4768686878804873 pbc="F F F"
C        0.00000000       0.00000000       0.00000000       0.00000000       0.00000000       3.64632916
C        0.00000000       0.00000000       2.30505051       0.00000000       0.00000000      -3.64632916
2
Properties=species:S:1:pos:R:3:forces:R:3 energy=-3.286481941522399 pbc="F F F"
C        0.00000000       0.00000000       0.00000000       0.00000000       0.00000000       2.76988554
C        0.00000000       0.00000000       2.36464646       0.00000000       0.00000000      -2.76988554
2
Properties=species:S:1:pos:R:3:forces:R:3 energy=-3.1434248173921455 pbc="F F F"
C        0.00000000       0.00000000       0.00000000       0.00000000       0.00000000       2.05843973
C        0.00000000       0.00000000       2.42424242       0.00000000       0.00000000      -2.05843973
2
Properties=species:S:1:pos:R:3:forces:R:3 energy=-3.0380008148070132 pbc="F F F"
C        0.00000000       0.00000000       0.00000000       0.00000000       0.00000000       1.50434709
C        0.00000000       0.00000000       2.48383838       0.00000000       0.00000000      -1.50434709
2
Properties=species:S:1:pos:R:3:forces:R:3 energy=-2.9613888668286723 pbc="F F F"
C        0.00000000       0.00000000       0.00000000       0.00000000       0.00000000       1.08762956
C        0.00000000       0.00000000       2.54343434       0.00000000       0.00000000      -1.08762956
2
Properties=species:S:1:pos:R:3:forces:R:3 energy=-2.9061058206297106 pbc="F F F"
C        0.00000000       0.00000000       0.00000000       0.00000000       0.00000000       0.78463793
C        0.00000000       0.00000000       2.60303030       0.00000000       0.00000000      -0.78463793
2
Properties=species:S:1:pos:R:3:forces:R:3 energy=-2.8660706527909534 pbc="F F F"
C        0.00000000       0.00000000       0.00000000       0.00000000       0.00000000       0.57209784
C        0.00000000       0.00000000       2.66262626       0.00000000       0.00000000      -0.57209784
2
Properties=species:S:1:pos:R:3:forces:R:3 energy=-2.836541093477014 pbc="F F F"
C        0.00000000       0.00000000       0.00000000       0.00000000       0.00000000       0.42880103
C        0.00000000       0.00000000       2.72222222       0.00000000       0.00000000      -0.42880103
2
Properties=species:S:1:pos:R:3:forces:R:3 energy=-2.813956469746882 pbc="F F F"
C        0.00000000       0.00000000       0.00000000       0.00000000       0.00000000       0.33619836
C        0.00000000       0.00000000       2.78181818       0.00000000       0.00000000      -0.33619836
2
Properties=species:S:1:pos:R:3:forces:R:3 energy=-2.795773773357898 pbc="F F F"
C        0.00000000       0.00000000       0.00000000       0.00000000       0.00000000       0.27871504
C        0.00000000       0.00000000       2.84141414       0.00000000       0.00000000      -0.27871504
2
Properties=species:S:1:pos:R:3:forces:R:3 energy=-2.780287279271683 pbc="F F F"
C        0.00000000       0.00000000       0.00000000       0.00000000       0.00000000       0.24391949
C        0.00000000       0.00000000       2.90101010       0.00000000       0.00000000      -0.24391949
2
Properties=species:S:1:pos:R:3:forces:R:3 energy=-2.766437381471034 pbc="F F F"
C        0.00000000       0.00000000       0.00000000       0.00000000       0.00000000       0.22247098
C        0.00000000       0.00000000       2.96060606       0.00000000       0.00000000      -0.22247098
2
Properties=species:S:1:pos:R:3:forces:R:3 energy=-2.7536363675833058 pbc="F F F"
C        0.00000000       0.00000000       0.00000000       0.00000000       0.00000000       0.20785530
C        0.00000000       0.00000000       3.02020202       0.00000000       0.00000000      -0.20785530
2
Properties=species:S:1:pos:R:3:forces:R:3 energy=-2.741609611515888 pbc="F F F"
C        0.00000000       0.00000000       0.00000000       0.00000000       0.00000000       0.19593847
C        0.00000000       0.00000000       3.07979798       0.00000000       0.00000000      -0.19593847
2
Properties=species:S:1:pos:R:3:forces:R:3 energy=-2.7302742389902863 pbc="F F F"
C        0.00000000       0.00000000       0.00000000       0.00000000       0.00000000       0.18443255
C        0.00000000       0.00000000       3.13939394       0.00000000       0.00000000      -0.18443255
2
Properties=species:S:1:pos:R:3:forces:R:3 energy=-2.7196386867960545 pbc="F F F"
C        0.00000000       0.00000000       0.00000000       0.00000000       0.00000000       0.17236246
C        0.00000000       0.00000000       3.19898990       0.00000000       0.00000000      -0.17236246
2
Properties=species:S:1:pos:R:3:forces:R:3 energy=-2.709744234802029 pbc="F F F"
C        0.00000000       0.00000000       0.00000000       0.00000000       0.00000000       0.15958700
C        0.00000000       0.00000000       3.25858586       0.00000000       0.00000000      -0.15958700
2
Properties=species:S:1:pos:R:3:forces:R:3 energy=-2.700625333437531 pbc="F F F"
C        0.00000000       0.00000000       0.00000000       0.00000000       0.00000000       0.14641476
C        0.00000000       0.00000000       3.31818182       0.00000000       0.00000000      -0.14641476
2
Properties=species:S:1:pos:R:3:forces:R:3 energy=-2.692291133004091 pbc="F F F"
C        0.00000000       0.00000000       0.00000000       0.00000000       0.00000000       0.13333955
C        0.00000000       0.00000000       3.37777778       0.00000000       0.00000000      -0.13333955
2
Properties=species:S:1:pos:R:3:forces:R:3 energy=-2.684720607597914 pbc="F F F"
C        0.00000000       0.00000000       0.00000000       0.00000000       0.00000000       0.12086502
C        0.00000000       0.00000000       3.43737374       0.00000000       0.00000000      -0.12086502
2
Properties=species:S:1:pos:R:3:forces:R:3 energy=-2.6778643072352257 pbc="F F F"
C        0.00000000       0.00000000       0.00000000       0.00000000       0.00000000       0.10942917
C        0.00000000       0.00000000       3.49696970       0.00000000       0.00000000      -0.10942917
2
Properties=species:S:1:pos:R:3:forces:R:3 energy=-2.6716499943669745 pbc="F F F"
C        0.00000000       0.00000000       0.00000000       0.00000000       0.00000000       0.09936978
C        0.00000000       0.00000000       3.55656566       0.00000000       0.00000000      -0.09936978
2
Properties=species:S:1:pos:R:3:forces:R:3 energy=-2.6659877687103286 pbc="F F F"
C        0.00000000       0.00000000       0.00000000       0.00000000       0.00000000       0.09092963
C        0.00000000       0.00000000       3.61616162       0.00000000       0.00000000      -0.09092963
2
Properties=species:S:1:pos:R:3:forces:R:3 energy=-2.6607768768493396 pbc="F F F"
C        0.00000000       0.00000000       0.00000000       0.00000000       0.00000000       0.08425971
C        0.00000000       0.00000000       3.67575758       0.00000000       0.00000000      -0.08425971
2
Properties=species:S:1:pos:R:3:forces:R:3 energy=-2.6559085217807836 pbc="F F F"
C        0.00000000       0.00000000       0.00000000       0.00000000       0.00000000       0.07941575
C        0.00000000       0.00000000       3.73535354       0.00000000       0.00000000      -0.07941575
2
Properties=species:S:1:pos:R:3:forces:R:3 energy=-2.651275592934435 pbc="F F F"
C        0.00000000       0.00000000       0.00000000       0.00000000       0.00000000       0.07634738
C        0.00000000       0.00000000       3.79494949       0.00000000       0.00000000      -0.07634738
2
Properties=species:S:1:pos:R:3:forces:R:3 energy=-2.6467767042417596 pbc="F F F"
C        0.00000000       0.00000000       0.00000000       0.00000000       0.00000000       0.07487626
C        0.00000000       0.00000000       3.85454545       0.00000000       0.00000000      -0.07487626
2
Properties=species:S:1:pos:R:3:forces:R:3 energy=-2.642325484540942 pbc="F F F"
C        0.00000000       0.00000000       0.00000000       0.00000000       0.00000000       0.07470177
C        0.00000000       0.00000000       3.91414141       0.00000000       0.00000000      -0.07470177
2
Properties=species:S:1:pos:R:3:forces:R:3 energy=-2.6378551289126904 pbc="F F F"
C        0.00000000       0.00000000       0.00000000       0.00000000       0.00000000       0.07541765
C        0.00000000       0.00000000       3.97373737       0.00000000       0.00000000      -0.07541765
2
Properties=species:S:1:pos:R:3:forces:R:3 energy=-2.633327264517169 pbc="F F F"
C        0.00000000       0.00000000       0.00000000       0.00000000       0.00000000       0.07656696
C        0.00000000       0.00000000       4.03333333       0.00000000       0.00000000      -0.07656696
2
Properties=species:S:1:pos:R:3:forces:R:3 energy=-2.628729122833187 pbc="F F F"
C        0.00000000       0.00000000       0.00000000       0.00000000       0.00000000       0.07772281
C        0.00000000       0.00000000       4.09292929       0.00000000       0.00000000      -0.07772281
2
Properties=species:S:1:pos:R:3:forces:R:3 energy=-2.62406977802195 pbc="F F F"
C        0.00000000       0.00000000       0.00000000       0.00000000       0.00000000       0.07856967
C        0.00000000       0.00000000       4.15252525       0.00000000       0.00000000      -0.07856967
2
Properties=species:S:1:pos:R:3:forces:R:3 energy=-2.619373284265376 pbc="F F F"
C        0.00000000       0.00000000       0.00000000       0.00000000       0.00000000       0.07897282
C        0.00000000       0.00000000       4.21212121       0.00000000       0.00000000      -0.07897282
2
Properties=species:S:1:pos:R:3:forces:R:3 energy=-2.614664889462154 pbc="F F F"
C        0.00000000       0.00000000       0.00000000       0.00000000       0.00000000       0.07899281
C        0.00000000       0.00000000       4.27171717       0.00000000       0.00000000      -0.07899281
2
Properties=species:S:1:pos:R:3:forces:R:3 energy=-2.6099606053948583 pbc="F F F"
C        0.00000000       0.00000000       0.00000000       0.00000000       0.00000000       0.07886790
C        0.00000000       0.00000000       4.33131313       0.00000000       0.00000000      -0.07886790
2
Properties=species:S:1:pos:R:3:forces:R:3 energy=-2.60526056527187 pbc="F F F"
C        0.00000000       0.00000000       0.00000000       0.00000000       0.00000000       0.07892245
C        0.00000000       0.00000000       4.39090909       0.00000000       0.00000000      -0.07892245
2
Properties=species:S:1:pos:R:3:forces:R:3 energy=-2.600543582865653 pbc="F F F"
C        0.00000000       0.00000000       0.00000000       0.00000000       0.00000000       0.07948380
C        0.00000000       0.00000000       4.45050505       0.00000000       0.00000000      -0.07948380
2
Properties=species:S:1:pos:R:3:forces:R:3 energy=-2.5957724293997186 pbc="F F F"
C        0.00000000       0.00000000       0.00000000       0.00000000       0.00000000       0.08076026
C        0.00000000       0.00000000       4.51010101       0.00000000       0.00000000      -0.08076026
2
Properties=species:S:1:pos:R:3:forces:R:3 energy=-2.59090267641885 pbc="F F F"
C        0.00000000       0.00000000       0.00000000       0.00000000       0.00000000       0.08276901
C        0.00000000       0.00000000       4.56969697       0.00000000       0.00000000      -0.08276901
2
Properties=species:S:1:pos:R:3:forces:R:3 energy=-2.5858970412935816 pbc="F F F"
C        0.00000000       0.00000000       0.00000000       0.00000000       0.00000000       0.08527605
C        0.00000000       0.00000000       4.62929293       0.00000000       0.00000000      -0.08527605
2
Properties=species:S:1:pos:R:3:forces:R:3 energy=-2.580738260833525 pbc="F F F"
C        0.00000000       0.00000000       0.00000000       0.00000000       0.00000000       0.08780964
C        0.00000000       0.00000000       4.68888889       0.00000000       0.00000000      -0.08780964
2
Properties=species:S:1:pos:R:3:forces:R:3 energy=-2.5754429496592706 pbc="F F F"
C        0.00000000       0.00000000       0.00000000       0.00000000       0.00000000       0.08971732
C        0.00000000       0.00000000       4.74848485       0.00000000       0.00000000      -0.08971732
2
Properties=species:S:1:pos:R:3:forces:R:3 energy=-2.570071131995824 pbc="F F F"
C        0.00000000       0.00000000       0.00000000       0.00000000       0.00000000       0.09029501
C        0.00000000       0.00000000       4.80808081       0.00000000       0.00000000      -0.09029501
2
Properties=species:S:1:pos:R:3:forces:R:3 energy=-2.564719116041726 pbc="F F F"
C        0.00000000       0.00000000       0.00000000       0.00000000       0.00000000       0.08894672
C        0.00000000       0.00000000       4.86767677       0.00000000       0.00000000      -0.08894672
2
Properties=species:S:1:pos:R:3:forces:R:3 energy=-2.559513287760406 pbc="F F F"
C        0.00000000       0.00000000       0.00000000       0.00000000       0.00000000       0.08538467
C        0.00000000       0.00000000       4.92727273       0.00000000       0.00000000      -0.08538467
2
Properties=species:S:1:pos:R:3:forces:R:3 energy=-2.5545834171068096 pbc="F F F"
C        0.00000000       0.00000000       0.00000000       0.00000000       0.00000000       0.07975041
C        0.00000000       0.00000000       4.98686869       0.00000000       0.00000000      -0.07975041
2
Properties=species:S:1:pos:R:3:forces:R:3 energy=-2.5500371504072588 pbc="F F F"
C        0.00000000       0.00000000       0.00000000       0.00000000       0.00000000       0.07267854
C        0.00000000       0.00000000       5.04646465       0.00000000       0.00000000      -0.07267854
2
Properties=species:S:1:pos:R:3:forces:R:3 energy=-2.545929723874316 pbc="F F F"
C        0.00000000       0.00000000       0.00000000       0.00000000       0.00000000       0.06518532
C        0.00000000       0.00000000       5.10606061       0.00000000       0.00000000      -0.06518532
2
Properties=species:S:1:pos:R:3:forces:R:3 energy=-2.54225205534912 pbc="F F F"
C        0.00000000       0.00000000       0.00000000       0.00000000       0.00000000       0.05842508
C        0.00000000       0.00000000       5.16565657       0.00000000       0.00000000      -0.05842508
2
Properties=species:S:1:pos:R:3:forces:R:3 energy=-2.5389338351303943 pbc="F F F"
C        0.00000000       0.00000000       0.00000000       0.00000000       0.00000000       0.05322174
C        0.00000000       0.00000000       5.22525253       0.00000000       0.00000000      -0.05322174
2
Properties=species:S:1:pos:R:3:forces:R:3 energy=-2.535880955612485 pbc="F F F"
C        0.00000000       0.00000000       0.00000000       0.00000000       0.00000000       0.04936281
C        0.00000000       0.00000000       5.28484848       0.00000000       0.00000000      -0.04936281
2
Properties=species:S:1:pos:R:3:forces:R:3 energy=-2.5330570537062296 pbc="F F F"
C        0.00000000       0.00000000       0.00000000       0.00000000       0.00000000       0.04513357
C        0.00000000       0.00000000       5.34444444       0.00000000       0.00000000      -0.04513357
2
Properties=species:S:1:pos:R:3:forces:R:3 energy=-2.5305540757097664 pbc="F F F"
C        0.00000000       0.00000000       0.00000000       0.00000000       0.00000000       0.03829886
C        0.00000000       0.00000000       5.40404040       0.00000000       0.00000000      -0.03829886
2
Properties=species:S:1:pos:R:3:forces:R:3 energy=-2.5285546097468914 pbc="F F F"
C        0.00000000       0.00000000       0.00000000       0.00000000       0.00000000       0.02839335
C        0.00000000       0.00000000       5.46363636       0.00000000       0.00000000      -0.02839335
2
Properties=species:S:1:pos:R:3:forces:R:3 energy=-2.5271873972775043 pbc="F F F"
C        0.00000000       0.00000000       0.00000000       0.00000000       0.00000000       0.01766495
C        0.00000000       0.00000000       5.52323232       0.00000000       0.00000000      -0.01766495
2
Properties=species:S:1:pos:R:3:forces:R:3 energy=-2.526395728615804 pbc="F F F"
C        0.00000000       0.00000000       0.00000000       0.00000000       0.00000000       0.00960972
C        0.00000000       0.00000000       5.58282828       0.00000000       0.00000000      -0.00960972
2
Properties=species:S:1:pos:R:3:forces:R:3 energy=-2.5259436333988146 pbc="F F F"
C        0.00000000       0.00000000       0.00000000       0.00000000       0.00000000       0.00637860
C        0.00000000       0.00000000       5.64242424       0.00000000       0.00000000      -0.00637860
2
Properties=species:S:1:pos:R:3:forces:R:3 energy=-2.525561796023612 pbc="F F F"
C        0.00000000       0.00000000       0.00000000       0.00000000       0.00000000       0.00676326
C        0.00000000       0.00000000       5.70202020       0.00000000       0.00000000      -0.00676326
2
Properties=species:S:1:pos:R:3:forces:R:3 energy=-2.525133279661675 pbc="F F F"
C        0.00000000       0.00000000       0.00000000       0.00000000       0.00000000       0.00743348
C        0.00000000       0.00000000       5.76161616       0.00000000       0.00000000      -0.00743348
2
Properties=species:S:1:pos:R:3:forces:R:3 energy=-2.5247125961814088 pbc="F F F"
C        0.00000000       0.00000000       0.00000000       0.00000000       0.00000000       0.00634342
C        0.00000000       0.00000000       5.82121212       0.00000000       0.00000000      -0.00634342
2
Properties=species:S:1:pos:R:3:forces:R:3 energy=-2.524405066545113 pbc="F F F"
C        0.00000000       0.00000000       0.00000000       0.00000000       0.00000000       0.00391207
C        0.00000000       0.00000000       5.88080808       0.00000000       0.00000000      -0.00391207
2
Properties=species:S:1:pos:R:3:forces:R:3 energy=-2.52424212467479 pbc="F F F"
C        0.00000000       0.00000000       0.00000000       0.00000000       0.00000000       0.00165253
C        0.00000000       0.00000000       5.94040404       0.00000000       0.00000000      -0.00165253
2
Properties=species:S:1:pos:R:3:forces:R:3 energy=-2.5241803625898944 pbc="F F F"
C        0.00000000       0.00000000       0.00000000       0.00000000       0.00000000       0.00071887
C        0.00000000       0.00000000       6.00000000       0.00000000       0.00000000      -0.00071887
