2
Properties=species:S:1:pos:R:3:forces:R:3 energy=385.1614192600814 pbc="F F F"
C        0.00000000       0.00000000       0.00000000       0.00000000       0.00000000   -4750.26464844
C        0.00000000       0.00000000       0.18000000       0.00000000       0.00000000    4750.26464844
2
Properties=species:S:1:pos:R:3:forces:R:3 energy=202.6771358143997 pbc="F F F"
C        0.00000000       0.00000000       0.00000000       0.00000000       0.00000000   -1950.94250488
C        0.00000000       0.00000000       0.23878788       0.00000000       0.00000000    1950.94250488
2
Properties=species:S:1:pos:R:3:forces:R:3 energy=123.26056324676674 pbc="F F F"
C        0.00000000       0.00000000       0.00000000       0.00000000       0.00000000    -902.44525146
C        0.00000000       0.00000000       0.29757576       0.00000000       0.00000000     902.44525146
2
Properties=species:S:1:pos:R:3:forces:R:3 energy=85.5481380227527 pbc="F F F"
C        0.00000000       0.00000000       0.00000000       0.00000000       0.00000000    -438.12936401
C        0.00000000       0.00000000       0.35636364       0.00000000       0.00000000     438.12936401
2
Properties=species:S:1:pos:R:3:forces:R:3 energy=67.16766776588072 pbc="F F F"
C        0.00000000       0.00000000       0.00000000       0.00000000       0.00000000    -214.11576843
C        0.00000000       0.00000000       0.41515152       0.00000000       0.00000000     214.11576843
2
Properties=species:S:1:pos:R:3:forces:R:3 energy=57.8161930419317 pbc="F F F"
C        0.00000000       0.00000000       0.00000000       0.00000000       0.00000000    -123.00749207
C        0.00000000       0.00000000       0.47393939       0.00000000       0.00000000     123.00749207
2
Properties=species:S:1:pos:R:3:forces:R:3 energy=50.774517543996836 pbc="F F F"
C        0.00000000       0.00000000       0.00000000       0.00000000       0.00000000    -129.21549988
C        0.00000000       0.00000000       0.53272727       0.00000000       0.00000000     129.21549988
2
Properties=species:S:1:pos:R:3:forces:R:3 energy=41.765511165713846 pbc="F F F"
C        0.00000000       0.00000000       0.00000000       0.00000000       0.00000000    -178.52961731
C        0.00000000       0.00000000       0.59151515       0.00000000       0.00000000     178.52961731
2
Properties=species:S:1:pos:R:3:forces:R:3 energy=30.360232207324653 pbc="F F F"
C        0.00000000       0.00000000       0.00000000       0.00000000       0.00000000    -199.75805664
C        0.00000000       0.00000000       0.65030303       0.00000000       0.00000000     199.75805664
2
Properties=species:S:1:pos:R:3:forces:R:3 energy=19.321854760682136 pbc="F F F"
C        0.00000000       0.00000000       0.00000000       0.00000000       0.00000000    -171.09452820
C        0.00000000       0.00000000       0.70909091       0.00000000       0.00000000     171.09452820
2
Properties=species:S:1:pos:R:3:forces:R:3 energy=10.453956299567153 pbc="F F F"
C        0.00000000       0.00000000       0.00000000       0.00000000       0.00000000    -130.29881287
C        0.00000000       0.00000000       0.76787879       0.00000000       0.00000000     130.29881287
2
Properties=species:S:1:pos:R:3:forces:R:3 energy=3.8987757426980836 pbc="F F F"
C        0.00000000       0.00000000       0.00000000       0.00000000       0.00000000     -94.37464142
C        0.00000000       0.00000000       0.82666667       0.00000000       0.00000000      94.37464142
2
Properties=species:S:1:pos:R:3:forces:R:3 energy=-0.8523492961318371 pbc="F F F"
C        0.00000000       0.00000000       0.00000000       0.00000000       0.00000000     -68.83345032
C        0.00000000       0.00000000       0.88545455       0.00000000       0.00000000      68.83345032
2
Properties=species:S:1:pos:R:3:forces:R:3 energy=-4.3215532564335986 pbc="F F F"
C        0.00000000       0.00000000       0.00000000       0.00000000       0.00000000     -49.79607010
C        0.00000000       0.00000000       0.94424242       0.00000000       0.00000000      49.79607010
2
Properties=species:S:1:pos:R:3:forces:R:3 energy=-6.751301752311772 pbc="F F F"
C        0.00000000       0.00000000       0.00000000       0.00000000       0.00000000     -33.26252365
C        0.00000000       0.00000000       1.00303030       0.00000000       0.00000000      33.26252365
2
Properties=species:S:1:pos:R:3:forces:R:3 energy=-8.307606922018607 pbc="F F F"
C        0.00000000       0.00000000       0.00000000       0.00000000       0.00000000     -20.51004982
C        0.00000000       0.00000000       1.06181818       0.00000000       0.00000000      20.51004982
2
Properties=species:S:1:pos:R:3:forces:R:3 energy=-9.254412263504063 pbc="F F F"
C        0.00000000       0.00000000       0.00000000       0.00000000       0.00000000     -12.31256771
C        0.00000000       0.00000000       1.12060606       0.00000000       0.00000000      12.31256771
2
Properties=species:S:1:pos:R:3:forces:R:3 energy=-9.8026569734566 pbc="F F F"
C        0.00000000       0.00000000       0.00000000       0.00000000       0.00000000      -6.57443476
C        0.00000000       0.00000000       1.17939394       0.00000000       0.00000000       6.57443476
2
Properties=species:S:1:pos:R:3:forces:R:3 energy=-10.046918617851397 pbc="F F F"
C        0.00000000       0.00000000       0.00000000       0.00000000       0.00000000      -1.89119232
C        0.00000000       0.00000000       1.23818182       0.00000000       0.00000000       1.89119232
2
Properties=species:S:1:pos:R:3:forces:R:3 energy=-10.046565098982358 pbc="F F F"
C        0.00000000       0.00000000       0.00000000       0.00000000       0.00000000       1.69901264
C        0.00000000       0.00000000       1.29696970       0.00000000       0.00000000      -1.69901264
2
Properties=species:S:1:pos:R:3:forces:R:3 energy=-9.870617473930496 pbc="F F F"
C        0.00000000       0.00000000       0.00000000       0.00000000       0.00000000       4.10541487
C        0.00000000       0.00000000       1.35575758       0.00000000       0.00000000      -4.10541487
2
Properties=species:S:1:pos:R:3:forces:R:3 energy=-9.582077338956285 pbc="F F F"
C        0.00000000       0.00000000       0.00000000       0.00000000       0.00000000       5.58244038
C        0.00000000       0.00000000       1.41454545       0.00000000       0.00000000      -5.58244038
2
Properties=species:S:1:pos:R:3:forces:R:3 energy=-9.226885433770528 pbc="F F F"
C        0.00000000       0.00000000       0.00000000       0.00000000       0.00000000       6.40978670
C        0.00000000       0.00000000       1.47333333       0.00000000       0.00000000      -6.40978670
2
Properties=species:S:1:pos:R:3:forces:R:3 energy=-8.837994982528613 pbc="F F F"
C        0.00000000       0.00000000       0.00000000       0.00000000       0.00000000       6.74919701
C        0.00000000       0.00000000       1.53212121       0.00000000       0.00000000      -6.74919701
2
Properties=species:S:1:pos:R:3:forces:R:3 energy=-8.4399668467313 pbc="F F F"
C        0.00000000       0.00000000       0.00000000       0.00000000       0.00000000       6.75369024
C        0.00000000       0.00000000       1.59090909       0.00000000       0.00000000      -6.75369024
2
Properties=species:S:1:pos:R:3:forces:R:3 energy=-8.045769125683487 pbc="F F F"
C        0.00000000       0.00000000       0.00000000       0.00000000       0.00000000       6.66567564
C        0.00000000       0.00000000       1.64969697       0.00000000       0.00000000      -6.66567564
2
Properties=species:S:1:pos:R:3:forces:R:3 energy=-7.652796435950238 pbc="F F F"
C        0.00000000       0.00000000       0.00000000       0.00000000       0.00000000       6.74766254
C        0.00000000       0.00000000       1.70848485       0.00000000       0.00000000      -6.74766254
2
Properties=species:S:1:pos:R:3:forces:R:3 energy=-7.246854607997103 pbc="F F F"
C        0.00000000       0.00000000       0.00000000       0.00000000       0.00000000       7.10536909
C        0.00000000       0.00000000       1.76727273       0.00000000       0.00000000      -7.10536909
2
Properties=species:S:1:pos:R:3:forces:R:3 energy=-6.813858775610297 pbc="F F F"
C        0.00000000       0.00000000       0.00000000       0.00000000       0.00000000       7.63890362
C        0.00000000       0.00000000       1.82606061       0.00000000       0.00000000      -7.63890362
2
Properties=species:S:1:pos:R:3:forces:R:3 energy=-6.349257033781652 pbc="F F F"
C        0.00000000       0.00000000       0.00000000       0.00000000       0.00000000       8.14449596
C        0.00000000       0.00000000       1.88484848       0.00000000       0.00000000      -8.14449596
2
Properties=species:S:1:pos:R:3:forces:R:3 energy=-5.860852335893474 pbc="F F F"
C        0.00000000       0.00000000       0.00000000       0.00000000       0.00000000       8.41818810
C        0.00000000       0.00000000       1.94363636       0.00000000       0.00000000      -8.41818810
2
Properties=species:S:1:pos:R:3:forces:R:3 energy=-5.366849108027818 pbc="F F F"
C        0.00000000       0.00000000       0.00000000       0.00000000       0.00000000       8.31956959
C        0.00000000       0.00000000       2.00242424       0.00000000       0.00000000      -8.31956959
2
Properties=species:S:1:pos:R:3:forces:R:3 energy=-4.890791343662921 pbc="F F F"
C        0.00000000       0.00000000       0.00000000       0.00000000       0.00000000       7.81048727
C        0.00000000       0.00000000       2.06121212       0.00000000       0.00000000      -7.81048727
2
Properties=species:S:1:pos:R:3:forces:R:3 energy=-4.45527636382824 pbc="F F F"
C        0.00000000       0.00000000       0.00000000       0.00000000       0.00000000       6.95953798
C        0.00000000       0.00000000       2.12000000       0.00000000       0.00000000      -6.95953798
2
Properties=species:S:1:pos:R:3:forces:R:3 energy=-4.07643562640297 pbc="F F F"
C        0.00000000       0.00000000       0.00000000       0.00000000       0.00000000       5.90907001
C        0.00000000       0.00000000       2.17878788       0.00000000       0.00000000      -5.90907001
2
Properties=species:S:1:pos:R:3:forces:R:3 energy=-3.761383719548393 pbc="F F F"
C        0.00000000       0.00000000       0.00000000       0.00000000       0.00000000       4.81267023
C        0.00000000       0.00000000       2.23757576       0.00000000       0.00000000      -4.81267023
2
Properties=species:S:1:pos:R:3:forces:R:3 energy=-3.5091533702320112 pbc="F F F"
C        0.00000000       0.00000000       0.00000000       0.00000000       0.00000000       3.78721857
C        0.00000000       0.00000000       2.29636364       0.00000000       0.00000000      -3.78721857
2
Properties=species:S:1:pos:R:3:forces:R:3 energy=-3.3133917790882124 pbc="F F F"
C        0.00000000       0.00000000       0.00000000       0.00000000       0.00000000       2.89856434
C        0.00000000       0.00000000       2.35515152       0.00000000       0.00000000      -2.89856434
2
Properties=species:S:1:pos:R:3:forces:R:3 energy=-3.165202694515992 pbc="F F F"
C        0.00000000       0.00000000       0.00000000       0.00000000       0.00000000       2.16975331
C        0.00000000       0.00000000       2.41393939       0.00000000       0.00000000      -2.16975331
2
Properties=species:S:1:pos:R:3:forces:R:3 energy=-3.0552230714780326 pbc="F F F"
C        0.00000000       0.00000000       0.00000000       0.00000000       0.00000000       1.59654391
C        0.00000000       0.00000000       2.47272727       0.00000000       0.00000000      -1.59654391
2
Properties=species:S:1:pos:R:3:forces:R:3 energy=-2.9747865441837003 pbc="F F F"
C        0.00000000       0.00000000       0.00000000       0.00000000       0.00000000       1.16111040
C        0.00000000       0.00000000       2.53151515       0.00000000       0.00000000      -1.16111040
2
Properties=species:S:1:pos:R:3:forces:R:3 energy=-2.916445827130581 pbc="F F F"
C        0.00000000       0.00000000       0.00000000       0.00000000       0.00000000       0.84098148
C        0.00000000       0.00000000       2.59030303       0.00000000       0.00000000      -0.84098148
2
Properties=species:S:1:pos:R:3:forces:R:3 energy=-2.8740917825140975 pbc="F F F"
C        0.00000000       0.00000000       0.00000000       0.00000000       0.00000000       0.61357307
C        0.00000000       0.00000000       2.64909091       0.00000000       0.00000000      -0.61357307
2
Properties=species:S:1:pos:R:3:forces:R:3 energy=-2.8428977514092395 pbc="F F F"
C        0.00000000       0.00000000       0.00000000       0.00000000       0.00000000       0.45800588
C        0.00000000       0.00000000       2.70787879       0.00000000       0.00000000      -0.45800588
2
Properties=species:S:1:pos:R:3:forces:R:3 energy=-2.819196414910228 pbc="F F F"
C        0.00000000       0.00000000       0.00000000       0.00000000       0.00000000       0.35584989
C        0.00000000       0.00000000       2.76666667       0.00000000       0.00000000      -0.35584989
2
Properties=species:S:1:pos:R:3:forces:R:3 energy=-2.8003214136699888 pbc="F F F"
C        0.00000000       0.00000000       0.00000000       0.00000000       0.00000000       0.29142651
C        0.00000000       0.00000000       2.82545455       0.00000000       0.00000000      -0.29142651
2
Properties=species:S:1:pos:R:3:forces:R:3 energy=-2.784443612941018 pbc="F F F"
C        0.00000000       0.00000000       0.00000000       0.00000000       0.00000000       0.25201139
C        0.00000000       0.00000000       2.88424242       0.00000000       0.00000000      -0.25201139
2
Properties=species:S:1:pos:R:3:forces:R:3 energy=-2.7703937999319965 pbc="F F F"
C        0.00000000       0.00000000       0.00000000       0.00000000       0.00000000       0.22784303
C        0.00000000       0.00000000       2.94303030       0.00000000       0.00000000      -0.22784303
2
Properties=species:S:1:pos:R:3:forces:R:3 energy=-2.7574946335555657 pbc="F F F"
C        0.00000000       0.00000000       0.00000000       0.00000000       0.00000000       0.21192530
C        0.00000000       0.00000000       3.00181818       0.00000000       0.00000000      -0.21192530
2
Properties=species:S:1:pos:R:3:forces:R:3 energy=-2.7454066402814297 pbc="F F F"
C        0.00000000       0.00000000       0.00000000       0.00000000       0.00000000       0.19965312
C        0.00000000       0.00000000       3.06060606       0.00000000       0.00000000      -0.19965312
2
Properties=species:S:1:pos:R:3:forces:R:3 energy=-2.734002570712988 pbc="F F F"
C        0.00000000       0.00000000       0.00000000       0.00000000       0.00000000       0.18833008
C        0.00000000       0.00000000       3.11939394       0.00000000       0.00000000      -0.18833008
2
Properties=species:S:1:pos:R:3:forces:R:3 energy=-2.723270322043956 pbc="F F F"
C        0.00000000       0.00000000       0.00000000       0.00000000       0.00000000       0.17666300
C        0.00000000       0.00000000       3.17818182       0.00000000       0.00000000      -0.17666300
2
Properties=species:S:1:pos:R:3:forces:R:3 energy=-2.713245184416299 pbc="F F F"
C        0.00000000       0.00000000       0.00000000       0.00000000       0.00000000       0.16428947
C        0.00000000       0.00000000       3.23696970       0.00000000       0.00000000      -0.16428947
2
Properties=species:S:1:pos:R:3:forces:R:3 energy=-2.7039646816062968 pbc="F F F"
C        0.00000000       0.00000000       0.00000000       0.00000000       0.00000000       0.15138784
C        0.00000000       0.00000000       3.29575758       0.00000000       0.00000000      -0.15138784
2
Properties=species:S:1:pos:R:3:forces:R:3 energy=-2.695447518913584 pbc="F F F"
C        0.00000000       0.00000000       0.00000000       0.00000000       0.00000000       0.13839157
C        0.00000000       0.00000000       3.35454545       0.00000000       0.00000000      -0.13839157
2
Properties=species:S:1:pos:R:3:forces:R:3 energy=-2.68768510387844 pbc="F F F"
C        0.00000000       0.00000000       0.00000000       0.00000000       0.00000000       0.12579474
C        0.00000000       0.00000000       3.41333333       0.00000000       0.00000000      -0.12579474
2
Properties=species:S:1:pos:R:3:forces:R:3 energy=-2.68064025915423 pbc="F F F"
C        0.00000000       0.00000000       0.00000000       0.00000000       0.00000000       0.11404733
C        0.00000000       0.00000000       3.47212121       0.00000000       0.00000000      -0.11404733
2
Properties=species:S:1:pos:R:3:forces:R:3 energy=-2.6742525715022802 pbc="F F F"
C        0.00000000       0.00000000       0.00000000       0.00000000       0.00000000       0.10351444
C        0.00000000       0.00000000       3.53090909       0.00000000       0.00000000      -0.10351444
2
Properties=species:S:1:pos:R:3:forces:R:3 energy=-2.6684404512359405 pbc="F F F"
C        0.00000000       0.00000000       0.00000000       0.00000000       0.00000000       0.09446596
C        0.00000000       0.00000000       3.58969697       0.00000000       0.00000000      -0.09446596
2
Properties=species:S:1:pos:R:3:forces:R:3 energy=-2.663112455143181 pbc="F F F"
C        0.00000000       0.00000000       0.00000000       0.00000000       0.00000000       0.08708672
C        0.00000000       0.00000000       3.64848485       0.00000000       0.00000000      -0.08708672
2
Properties=species:S:1:pos:R:3:forces:R:3 energy=-2.658166781139035 pbc="F F F"
C        0.00000000       0.00000000       0.00000000       0.00000000       0.00000000       0.08147165
C        0.00000000       0.00000000       3.70727273       0.00000000       0.00000000      -0.08147165
2
Properties=species:S:1:pos:R:3:forces:R:3 energy=-2.6534985642068873 pbc="F F F"
C        0.00000000       0.00000000       0.00000000       0.00000000       0.00000000       0.07762050
C        0.00000000       0.00000000       3.76606061       0.00000000       0.00000000      -0.07762050
2
Properties=species:S:1:pos:R:3:forces:R:3 energy=-2.6490079810462532 pbc="F F F"
C        0.00000000       0.00000000       0.00000000       0.00000000       0.00000000       0.07542528
C        0.00000000       0.00000000       3.82484848       0.00000000       0.00000000      -0.07542528
2
Properties=species:S:1:pos:R:3:forces:R:3 energy=-2.6446023879204335 pbc="F F F"
C        0.00000000       0.00000000       0.00000000       0.00000000       0.00000000       0.07465274
C        0.00000000       0.00000000       3.88363636       0.00000000       0.00000000      -0.07465274
2
Properties=species:S:1:pos:R:3:forces:R:3 energy=-2.6402094265507663 pbc="F F F"
C        0.00000000       0.00000000       0.00000000       0.00000000       0.00000000       0.07495849
C        0.00000000       0.00000000       3.94242424       0.00000000       0.00000000      -0.07495849
2
Properties=species:S:1:pos:R:3:forces:R:3 energy=-2.6357768371751567 pbc="F F F"
C        0.00000000       0.00000000       0.00000000       0.00000000       0.00000000       0.07592113
C        0.00000000       0.00000000       4.00121212       0.00000000       0.00000000      -0.07592113
2
Properties=species:S:1:pos:R:3:forces:R:3 energy=-2.6312786768340457 pbc="F F F"
C        0.00000000       0.00000000       0.00000000       0.00000000       0.00000000       0.07710504
C        0.00000000       0.00000000       4.06000000       0.00000000       0.00000000      -0.07710504
2
Properties=species:S:1:pos:R:3:forces:R:3 energy=-2.6267139272687787 pbc="F F F"
C        0.00000000       0.00000000       0.00000000       0.00000000       0.00000000       0.07814082
C        0.00000000       0.00000000       4.11878788       0.00000000       0.00000000      -0.07814082
2
Properties=species:S:1:pos:R:3:forces:R:3 energy=-2.622098693632759 pbc="F F F"
C        0.00000000       0.00000000       0.00000000       0.00000000       0.00000000       0.07879385
C        0.00000000       0.00000000       4.17757576       0.00000000       0.00000000      -0.07879385
2
Properties=species:S:1:pos:R:3:forces:R:3 energy=-2.6174578923113576 pbc="F F F"
C        0.00000000       0.00000000       0.00000000       0.00000000       0.00000000       0.07901707
C        0.00000000       0.00000000       4.23636364       0.00000000       0.00000000      -0.07901707
2
Properties=species:S:1:pos:R:3:forces:R:3 energy=-2.612813853555492 pbc="F F F"
C        0.00000000       0.00000000       0.00000000       0.00000000       0.00000000       0.07894342
C        0.00000000       0.00000000       4.29515152       0.00000000       0.00000000      -0.07894342
2
Properties=species:S:1:pos:R:3:forces:R:3 energy=-2.6081768385914406 pbc="F F F"
C        0.00000000       0.00000000       0.00000000       0.00000000       0.00000000       0.07884768
C        0.00000000       0.00000000       4.35393939       0.00000000       0.00000000      -0.07884768
2
Properties=species:S:1:pos:R:3:forces:R:3 energy=-2.6035376680477977 pbc="F F F"
C        0.00000000       0.00000000       0.00000000       0.00000000       0.00000000       0.07905526
C        0.00000000       0.00000000       4.41272727       0.00000000       0.00000000      -0.07905526
2
Properties=species:S:1:pos:R:3:forces:R:3 energy=-2.5988701627660893 pbc="F F F"
C        0.00000000       0.00000000       0.00000000       0.00000000       0.00000000       0.07984673
C        0.00000000       0.00000000       4.47151515       0.00000000       0.00000000      -0.07984673
2
Properties=species:S:1:pos:R:3:forces:R:3 energy=-2.594134965229659 pbc="F F F"
C        0.00000000       0.00000000       0.00000000       0.00000000       0.00000000       0.08136617
C        0.00000000       0.00000000       4.53030303       0.00000000       0.00000000      -0.08136617
2
Properties=species:S:1:pos:R:3:forces:R:3 energy=-2.5892905460201034 pbc="F F F"
C        0.00000000       0.00000000       0.00000000       0.00000000       0.00000000       0.08354677
C        0.00000000       0.00000000       4.58909091       0.00000000       0.00000000      -0.08354677
2
Properties=species:S:1:pos:R:3:forces:R:3 energy=-2.584304668499919 pbc="F F F"
C        0.00000000       0.00000000       0.00000000       0.00000000       0.00000000       0.08609083
C        0.00000000       0.00000000       4.64787879       0.00000000       0.00000000      -0.08609083
2
Properties=species:S:1:pos:R:3:forces:R:3 energy=-2.5791710816768325 pbc="F F F"
C        0.00000000       0.00000000       0.00000000       0.00000000       0.00000000       0.08847672
C        0.00000000       0.00000000       4.70666667       0.00000000       0.00000000      -0.08847672
2
Properties=species:S:1:pos:R:3:forces:R:3 energy=-2.5739178878207842 pbc="F F F"
C        0.00000000       0.00000000       0.00000000       0.00000000       0.00000000       0.09004785
C        0.00000000       0.00000000       4.76545455       0.00000000       0.00000000      -0.09004785
2
Properties=species:S:1:pos:R:3:forces:R:3 energy=-2.568612320734953 pbc="F F F"
C        0.00000000       0.00000000       0.00000000       0.00000000       0.00000000       0.09013838
C        0.00000000       0.00000000       4.82424242       0.00000000       0.00000000      -0.09013838
2
Properties=species:S:1:pos:R:3:forces:R:3 energy=-2.5633593209859593 pbc="F F F"
C        0.00000000       0.00000000       0.00000000       0.00000000       0.00000000       0.08824570
C        0.00000000       0.00000000       4.88303030       0.00000000       0.00000000      -0.08824570
2
Properties=species:S:1:pos:R:3:forces:R:3 energy=-2.5582800738759905 pbc="F F F"
C        0.00000000       0.00000000       0.00000000       0.00000000       0.00000000       0.08418364
C        0.00000000       0.00000000       4.94181818       0.00000000       0.00000000      -0.08418364
2
Properties=species:S:1:pos:R:3:forces:R:3 energy=-2.5534986740394707 pbc="F F F"
C        0.00000000       0.00000000       0.00000000       0.00000000       0.00000000       0.07821616
C        0.00000000       0.00000000       5.00060606       0.00000000       0.00000000      -0.07821616
2
Properties=species:S:1:pos:R:3:forces:R:3 energy=-2.549107316132524 pbc="F F F"
C        0.00000000       0.00000000       0.00000000       0.00000000       0.00000000       0.07104637
C        0.00000000       0.00000000       5.05939394       0.00000000       0.00000000      -0.07104637
2
Properties=species:S:1:pos:R:3:forces:R:3 energy=-2.5451481667054283 pbc="F F F"
C        0.00000000       0.00000000       0.00000000       0.00000000       0.00000000       0.06371502
C        0.00000000       0.00000000       5.11818182       0.00000000       0.00000000      -0.06371502
2
Properties=species:S:1:pos:R:3:forces:R:3 energy=-2.5415978755084963 pbc="F F F"
C        0.00000000       0.00000000       0.00000000       0.00000000       0.00000000       0.05730468
C        0.00000000       0.00000000       5.17696970       0.00000000       0.00000000      -0.05730468
2
Properties=species:S:1:pos:R:3:forces:R:3 energy=-2.5383792566165297 pbc="F F F"
C        0.00000000       0.00000000       0.00000000       0.00000000       0.00000000       0.05247260
C        0.00000000       0.00000000       5.23575758       0.00000000       0.00000000      -0.05247260
2
Properties=species:S:1:pos:R:3:forces:R:3 energy=-2.5354053880453913 pbc="F F F"
C        0.00000000       0.00000000       0.00000000       0.00000000       0.00000000       0.04876385
C        0.00000000       0.00000000       5.29454545       0.00000000       0.00000000      -0.04876385
2
Properties=species:S:1:pos:R:3:forces:R:3 energy=-2.5326597273241944 pbc="F F F"
C        0.00000000       0.00000000       0.00000000       0.00000000       0.00000000       0.04432226
C        0.00000000       0.00000000       5.35333333       0.00000000       0.00000000      -0.04432226
2
Properties=species:S:1:pos:R:3:forces:R:3 energy=-2.5302499861746255 pbc="F F F"
C        0.00000000       0.00000000       0.00000000       0.00000000       0.00000000       0.03711318
C        0.00000000       0.00000000       5.41212121       0.00000000       0.00000000      -0.03711318
2
Properties=species:S:1:pos:R:3:forces:R:3 energy=-2.5283535318643717 pbc="F F F"
C        0.00000000       0.00000000       0.00000000       0.00000000       0.00000000       0.02706305
C        0.00000000       0.00000000       5.47090909       0.00000000       0.00000000      -0.02706305
2
Properties=species:S:1:pos:R:3:forces:R:3 energy=-2.527076480440953 pbc="F F F"
C        0.00000000       0.00000000       0.00000000       0.00000000       0.00000000       0.01660096
C        0.00000000       0.00000000       5.52969697       0.00000000       0.00000000      -0.01660096
2
Properties=species:S:1:pos:R:3:forces:R:3 energy=-2.5263428315974643 pbc="F F F"
C        0.00000000       0.00000000       0.00000000       0.00000000       0.00000000       0.00908738
C        0.00000000       0.00000000       5.58848485       0.00000000       0.00000000      -0.00908738
2
Properties=species:S:1:pos:R:3:forces:R:3 energy=-2.525913059481076 pbc="F F F"
C        0.00000000       0.00000000       0.00000000       0.00000000       0.00000000       0.00631448
C        0.00000000       0.00000000       5.64727273       0.00000000       0.00000000      -0.00631448
2
Properties=species:S:1:pos:R:3:forces:R:3 energy=-2.5255347926410594 pbc="F F F"
C        0.00000000       0.00000000       0.00000000       0.00000000       0.00000000       0.00683323
C        0.00000000       0.00000000       5.70606061       0.00000000       0.00000000      -0.00683323
2
Properties=species:S:1:pos:R:3:forces:R:3 energy=-2.525108277314636 pbc="F F F"
C        0.00000000       0.00000000       0.00000000       0.00000000       0.00000000       0.00743126
C        0.00000000       0.00000000       5.76484848       0.00000000       0.00000000      -0.00743126
2
Properties=species:S:1:pos:R:3:forces:R:3 energy=-2.524696861310828 pbc="F F F"
C        0.00000000       0.00000000       0.00000000       0.00000000       0.00000000       0.00626415
C        0.00000000       0.00000000       5.82363636       0.00000000       0.00000000      -0.00626415
2
Properties=species:S:1:pos:R:3:forces:R:3 energy=-2.5243980104006156 pbc="F F F"
C        0.00000000       0.00000000       0.00000000       0.00000000       0.00000000       0.00384230
C        0.00000000       0.00000000       5.88242424       0.00000000       0.00000000      -0.00384230
2
Properties=species:S:1:pos:R:3:forces:R:3 energy=-2.524241025410077 pbc="F F F"
C        0.00000000       0.00000000       0.00000000       0.00000000       0.00000000       0.00162698
C        0.00000000       0.00000000       5.94121212       0.00000000       0.00000000      -0.00162698
2
Properties=species:S:1:pos:R:3:forces:R:3 energy=-2.5241803625898944 pbc="F F F"
C        0.00000000       0.00000000       0.00000000       0.00000000       0.00000000       0.00071887
C        0.00000000       0.00000000       6.00000000       0.00000000       0.00000000      -0.00071887
