2
Properties=species:S:1:pos:R:3:forces:R:3 energy=8178.892241634899 pbc="F F F"
Cd       0.00000000       0.00000000       0.00000000       0.00000000       0.00000000 -135766.17187500
Cd       0.00000000       0.00000000       0.18000000       0.00000000       0.00000000  135766.17187500
2
Properties=species:S:1:pos:R:3:forces:R:3 energy=3349.2799369473987 pbc="F F F"
Cd       0.00000000       0.00000000       0.00000000       0.00000000       0.00000000  -46872.60937500
Cd       0.00000000       0.00000000       0.23878788       0.00000000       0.00000000   46872.60937500
2
Properties=species:S:1:pos:R:3:forces:R:3 energy=1550.6368705443163 pbc="F F F"
Cd       0.00000000       0.00000000       0.00000000       0.00000000       0.00000000  -19069.99414062
Cd       0.00000000       0.00000000       0.29757576       0.00000000       0.00000000   19069.99414062
2
Properties=species:S:1:pos:R:3:forces:R:3 energy=783.3535453521716 pbc="F F F"
Cd       0.00000000       0.00000000       0.00000000       0.00000000       0.00000000   -8589.11132812
Cd       0.00000000       0.00000000       0.35636364       0.00000000       0.00000000    8589.11132812
2
Properties=species:S:1:pos:R:3:forces:R:3 energy=426.5049735811636 pbc="F F F"
Cd       0.00000000       0.00000000       0.00000000       0.00000000       0.00000000   -4144.86181641
Cd       0.00000000       0.00000000       0.41515152       0.00000000       0.00000000    4144.86181641
2
Properties=species:S:1:pos:R:3:forces:R:3 energy=250.17780990388144 pbc="F F F"
Cd       0.00000000       0.00000000       0.00000000       0.00000000       0.00000000   -2104.59619141
Cd       0.00000000       0.00000000       0.47393939       0.00000000       0.00000000    2104.59619141
2
Properties=species:S:1:pos:R:3:forces:R:3 energy=159.0244285879034 pbc="F F F"
Cd       0.00000000       0.00000000       0.00000000       0.00000000       0.00000000   -1110.04980469
Cd       0.00000000       0.00000000       0.53272727       0.00000000       0.00000000    1110.04980469
2
Properties=species:S:1:pos:R:3:forces:R:3 energy=110.34342125333467 pbc="F F F"
Cd       0.00000000       0.00000000       0.00000000       0.00000000       0.00000000    -600.55029297
Cd       0.00000000       0.00000000       0.59151515       0.00000000       0.00000000     600.55029297
2
Properties=species:S:1:pos:R:3:forces:R:3 energy=83.83272493090087 pbc="F F F"
Cd       0.00000000       0.00000000       0.00000000       0.00000000       0.00000000    -328.86422729
Cd       0.00000000       0.00000000       0.65030303       0.00000000       0.00000000     328.86422729
2
Properties=species:S:1:pos:R:3:forces:R:3 energy=69.3230433686249 pbc="F F F"
Cd       0.00000000       0.00000000       0.00000000       0.00000000       0.00000000    -179.05230713
Cd       0.00000000       0.00000000       0.70909091       0.00000000       0.00000000     179.05230713
2
Properties=species:S:1:pos:R:3:forces:R:3 energy=61.54636358502537 pbc="F F F"
Cd       0.00000000       0.00000000       0.00000000       0.00000000       0.00000000     -93.21401215
Cd       0.00000000       0.00000000       0.76787879       0.00000000       0.00000000      93.21401215
2
Properties=species:S:1:pos:R:3:forces:R:3 energy=57.65763480001296 pbc="F F F"
Cd       0.00000000       0.00000000       0.00000000       0.00000000       0.00000000     -43.87462997
Cd       0.00000000       0.00000000       0.82666667       0.00000000       0.00000000      43.87462997
2
Properties=species:S:1:pos:R:3:forces:R:3 energy=55.91425373692827 pbc="F F F"
Cd       0.00000000       0.00000000       0.00000000       0.00000000       0.00000000     -18.85939789
Cd       0.00000000       0.00000000       0.88545455       0.00000000       0.00000000      18.85939789
2
Properties=species:S:1:pos:R:3:forces:R:3 energy=55.09915655215134 pbc="F F F"
Cd       0.00000000       0.00000000       0.00000000       0.00000000       0.00000000     -11.21736622
Cd       0.00000000       0.00000000       0.94424242       0.00000000       0.00000000      11.21736622
2
Properties=species:S:1:pos:R:3:forces:R:3 energy=54.39175613182856 pbc="F F F"
Cd       0.00000000       0.00000000       0.00000000       0.00000000       0.00000000     -13.99561024
Cd       0.00000000       0.00000000       1.00303030       0.00000000       0.00000000      13.99561024
2
Properties=species:S:1:pos:R:3:forces:R:3 energy=53.36703041407222 pbc="F F F"
Cd       0.00000000       0.00000000       0.00000000       0.00000000       0.00000000     -21.37497139
Cd       0.00000000       0.00000000       1.06181818       0.00000000       0.00000000      21.37497139
2
Properties=species:S:1:pos:R:3:forces:R:3 energy=51.82103432766923 pbc="F F F"
Cd       0.00000000       0.00000000       0.00000000       0.00000000       0.00000000     -31.71504593
Cd       0.00000000       0.00000000       1.12060606       0.00000000       0.00000000      31.71504593
2
Properties=species:S:1:pos:R:3:forces:R:3 energy=49.58322047279923 pbc="F F F"
Cd       0.00000000       0.00000000       0.00000000       0.00000000       0.00000000     -44.89064026
Cd       0.00000000       0.00000000       1.17939394       0.00000000       0.00000000      44.89064026
2
Properties=species:S:1:pos:R:3:forces:R:3 energy=46.478299815786734 pbc="F F F"
Cd       0.00000000       0.00000000       0.00000000       0.00000000       0.00000000     -61.25690079
Cd       0.00000000       0.00000000       1.23818182       0.00000000       0.00000000      61.25690079
2
Properties=species:S:1:pos:R:3:forces:R:3 energy=42.374783689631435 pbc="F F F"
Cd       0.00000000       0.00000000       0.00000000       0.00000000       0.00000000     -77.71220398
Cd       0.00000000       0.00000000       1.29696970       0.00000000       0.00000000      77.71220398
2
Properties=species:S:1:pos:R:3:forces:R:3 energy=37.485559063027175 pbc="F F F"
Cd       0.00000000       0.00000000       0.00000000       0.00000000       0.00000000     -87.05866241
Cd       0.00000000       0.00000000       1.35575758       0.00000000       0.00000000      87.05866241
2
Properties=species:S:1:pos:R:3:forces:R:3 energy=32.31913670297161 pbc="F F F"
Cd       0.00000000       0.00000000       0.00000000       0.00000000       0.00000000     -87.34791565
Cd       0.00000000       0.00000000       1.41454545       0.00000000       0.00000000      87.34791565
2
Properties=species:S:1:pos:R:3:forces:R:3 energy=27.34411041912093 pbc="F F F"
Cd       0.00000000       0.00000000       0.00000000       0.00000000       0.00000000     -81.08441162
Cd       0.00000000       0.00000000       1.47333333       0.00000000       0.00000000      81.08441162
2
Properties=species:S:1:pos:R:3:forces:R:3 energy=22.851904259340504 pbc="F F F"
Cd       0.00000000       0.00000000       0.00000000       0.00000000       0.00000000     -71.41251373
Cd       0.00000000       0.00000000       1.53212121       0.00000000       0.00000000      71.41251373
2
Properties=species:S:1:pos:R:3:forces:R:3 energy=18.964947380602542 pbc="F F F"
Cd       0.00000000       0.00000000       0.00000000       0.00000000       0.00000000     -60.82843018
Cd       0.00000000       0.00000000       1.59090909       0.00000000       0.00000000      60.82843018
2
Properties=species:S:1:pos:R:3:forces:R:3 energy=15.687606023877587 pbc="F F F"
Cd       0.00000000       0.00000000       0.00000000       0.00000000       0.00000000     -50.84729385
Cd       0.00000000       0.00000000       1.64969697       0.00000000       0.00000000      50.84729385
2
Properties=species:S:1:pos:R:3:forces:R:3 energy=12.960224356423733 pbc="F F F"
Cd       0.00000000       0.00000000       0.00000000       0.00000000       0.00000000     -42.19643784
Cd       0.00000000       0.00000000       1.70848485       0.00000000       0.00000000      42.19643784
2
Properties=species:S:1:pos:R:3:forces:R:3 energy=10.694391531741013 pbc="F F F"
Cd       0.00000000       0.00000000       0.00000000       0.00000000       0.00000000     -35.16269684
Cd       0.00000000       0.00000000       1.76727273       0.00000000       0.00000000      35.16269684
2
Properties=species:S:1:pos:R:3:forces:R:3 energy=8.79564544972253 pbc="F F F"
Cd       0.00000000       0.00000000       0.00000000       0.00000000       0.00000000     -29.66399384
Cd       0.00000000       0.00000000       1.82606061       0.00000000       0.00000000      29.66399384
2
Properties=species:S:1:pos:R:3:forces:R:3 energy=7.183985635301324 pbc="F F F"
Cd       0.00000000       0.00000000       0.00000000       0.00000000       0.00000000     -25.31962395
Cd       0.00000000       0.00000000       1.88484848       0.00000000       0.00000000      25.31962395
2
Properties=species:S:1:pos:R:3:forces:R:3 energy=5.8047730373021915 pbc="F F F"
Cd       0.00000000       0.00000000       0.00000000       0.00000000       0.00000000     -21.68988991
Cd       0.00000000       0.00000000       1.94363636       0.00000000       0.00000000      21.68988991
2
Properties=species:S:1:pos:R:3:forces:R:3 energy=4.625841272909552 pbc="F F F"
Cd       0.00000000       0.00000000       0.00000000       0.00000000       0.00000000     -18.47091484
Cd       0.00000000       0.00000000       2.00242424       0.00000000       0.00000000      18.47091484
2
Properties=species:S:1:pos:R:3:forces:R:3 energy=3.6276561527368196 pbc="F F F"
Cd       0.00000000       0.00000000       0.00000000       0.00000000       0.00000000     -15.53052521
Cd       0.00000000       0.00000000       2.06121212       0.00000000       0.00000000      15.53052521
2
Properties=species:S:1:pos:R:3:forces:R:3 energy=2.7948062207951665 pbc="F F F"
Cd       0.00000000       0.00000000       0.00000000       0.00000000       0.00000000     -12.84790039
Cd       0.00000000       0.00000000       2.12000000       0.00000000       0.00000000      12.84790039
2
Properties=species:S:1:pos:R:3:forces:R:3 energy=2.1115266572429037 pbc="F F F"
Cd       0.00000000       0.00000000       0.00000000       0.00000000       0.00000000     -10.44719791
Cd       0.00000000       0.00000000       2.17878788       0.00000000       0.00000000      10.44719791
2
Properties=species:S:1:pos:R:3:forces:R:3 energy=1.5603810202078734 pbc="F F F"
Cd       0.00000000       0.00000000       0.00000000       0.00000000       0.00000000      -8.35645962
Cd       0.00000000       0.00000000       2.23757576       0.00000000       0.00000000       8.35645962
2
Properties=species:S:1:pos:R:3:forces:R:3 energy=1.1226996680359163 pbc="F F F"
Cd       0.00000000       0.00000000       0.00000000       0.00000000       0.00000000      -6.58695984
Cd       0.00000000       0.00000000       2.29636364       0.00000000       0.00000000       6.58695984
2
Properties=species:S:1:pos:R:3:forces:R:3 energy=0.779826701786594 pbc="F F F"
Cd       0.00000000       0.00000000       0.00000000       0.00000000       0.00000000      -5.12761211
Cd       0.00000000       0.00000000       2.35515152       0.00000000       0.00000000       5.12761211
2
Properties=species:S:1:pos:R:3:forces:R:3 energy=0.5142995466406861 pbc="F F F"
Cd       0.00000000       0.00000000       0.00000000       0.00000000       0.00000000      -3.94968820
Cd       0.00000000       0.00000000       2.41393939       0.00000000       0.00000000       3.94968820
2
Properties=species:S:1:pos:R:3:forces:R:3 energy=0.31065327049954106 pbc="F F F"
Cd       0.00000000       0.00000000       0.00000000       0.00000000       0.00000000      -3.01592803
Cd       0.00000000       0.00000000       2.47272727       0.00000000       0.00000000       3.01592803
2
Properties=species:S:1:pos:R:3:forces:R:3 energy=0.15566172809826545 pbc="F F F"
Cd       0.00000000       0.00000000       0.00000000       0.00000000       0.00000000      -2.28830695
Cd       0.00000000       0.00000000       2.53151515       0.00000000       0.00000000       2.28830695
2
Properties=species:S:1:pos:R:3:forces:R:3 energy=0.03824837274547097 pbc="F F F"
Cd       0.00000000       0.00000000       0.00000000       0.00000000       0.00000000      -1.73205161
Cd       0.00000000       0.00000000       2.59030303       0.00000000       0.00000000       1.73205161
2
Properties=species:S:1:pos:R:3:forces:R:3 energy=-0.05074027553351655 pbc="F F F"
Cd       0.00000000       0.00000000       0.00000000       0.00000000       0.00000000      -1.31647432
Cd       0.00000000       0.00000000       2.64909091       0.00000000       0.00000000       1.31647432
2
Properties=species:S:1:pos:R:3:forces:R:3 energy=-0.11875762659980946 pbc="F F F"
Cd       0.00000000       0.00000000       0.00000000       0.00000000       0.00000000      -1.01427948
Cd       0.00000000       0.00000000       2.70787879       0.00000000       0.00000000       1.01427948
2
Properties=species:S:1:pos:R:3:forces:R:3 energy=-0.17172860019959985 pbc="F F F"
Cd       0.00000000       0.00000000       0.00000000       0.00000000       0.00000000      -0.80059612
Cd       0.00000000       0.00000000       2.76666667       0.00000000       0.00000000       0.80059612
2
Properties=species:S:1:pos:R:3:forces:R:3 energy=-0.21416015825064164 pbc="F F F"
Cd       0.00000000       0.00000000       0.00000000       0.00000000       0.00000000      -0.65183216
Cd       0.00000000       0.00000000       2.82545455       0.00000000       0.00000000       0.65183216
2
Properties=species:S:1:pos:R:3:forces:R:3 energy=-0.24918609487042062 pbc="F F F"
Cd       0.00000000       0.00000000       0.00000000       0.00000000       0.00000000      -0.54486781
Cd       0.00000000       0.00000000       2.88424242       0.00000000       0.00000000       0.54486781
2
Properties=species:S:1:pos:R:3:forces:R:3 energy=-0.27863705491876073 pbc="F F F"
Cd       0.00000000       0.00000000       0.00000000       0.00000000       0.00000000      -0.45933071
Cd       0.00000000       0.00000000       2.94303030       0.00000000       0.00000000       0.45933071
2
Properties=species:S:1:pos:R:3:forces:R:3 energy=-0.30337687223735554 pbc="F F F"
Cd       0.00000000       0.00000000       0.00000000       0.00000000       0.00000000      -0.38357487
Cd       0.00000000       0.00000000       3.00181818       0.00000000       0.00000000       0.38357487
2
Properties=species:S:1:pos:R:3:forces:R:3 energy=-0.323883596835222 pbc="F F F"
Cd       0.00000000       0.00000000       0.00000000       0.00000000       0.00000000      -0.31537247
Cd       0.00000000       0.00000000       3.06060606       0.00000000       0.00000000       0.31537247
2
Properties=species:S:1:pos:R:3:forces:R:3 energy=-0.3405997673464373 pbc="F F F"
Cd       0.00000000       0.00000000       0.00000000       0.00000000       0.00000000      -0.25437665
Cd       0.00000000       0.00000000       3.11939394       0.00000000       0.00000000       0.25437665
2
Properties=species:S:1:pos:R:3:forces:R:3 energy=-0.35389173635965343 pbc="F F F"
Cd       0.00000000       0.00000000       0.00000000       0.00000000       0.00000000      -0.19848704
Cd       0.00000000       0.00000000       3.17818182       0.00000000       0.00000000       0.19848704
2
Properties=species:S:1:pos:R:3:forces:R:3 energy=-0.3640052746155802 pbc="F F F"
Cd       0.00000000       0.00000000       0.00000000       0.00000000       0.00000000      -0.14615399
Cd       0.00000000       0.00000000       3.23696970       0.00000000       0.00000000       0.14615399
2
Properties=species:S:1:pos:R:3:forces:R:3 energy=-0.37115368290224904 pbc="F F F"
Cd       0.00000000       0.00000000       0.00000000       0.00000000       0.00000000      -0.09784472
Cd       0.00000000       0.00000000       3.29575758       0.00000000       0.00000000       0.09784472
2
Properties=species:S:1:pos:R:3:forces:R:3 energy=-0.37562387332250674 pbc="F F F"
Cd       0.00000000       0.00000000       0.00000000       0.00000000       0.00000000      -0.05537907
Cd       0.00000000       0.00000000       3.35454545       0.00000000       0.00000000       0.05537907
2
Properties=species:S:1:pos:R:3:forces:R:3 energy=-0.3778194976559053 pbc="F F F"
Cd       0.00000000       0.00000000       0.00000000       0.00000000       0.00000000      -0.02076584
Cd       0.00000000       0.00000000       3.41333333       0.00000000       0.00000000       0.02076584
2
Properties=species:S:1:pos:R:3:forces:R:3 energy=-0.37824637018986745 pbc="F F F"
Cd       0.00000000       0.00000000       0.00000000       0.00000000       0.00000000       0.00465538
Cd       0.00000000       0.00000000       3.47212121       0.00000000       0.00000000      -0.00465538
2
Properties=species:S:1:pos:R:3:forces:R:3 energy=-0.37745705695173554 pbc="F F F"
Cd       0.00000000       0.00000000       0.00000000       0.00000000       0.00000000       0.02067088
Cd       0.00000000       0.00000000       3.53090909       0.00000000       0.00000000      -0.02067088
2
Properties=species:S:1:pos:R:3:forces:R:3 energy=-0.37598190681545635 pbc="F F F"
Cd       0.00000000       0.00000000       0.00000000       0.00000000       0.00000000       0.02824365
Cd       0.00000000       0.00000000       3.58969697       0.00000000       0.00000000      -0.02824365
2
Properties=species:S:1:pos:R:3:forces:R:3 energy=-0.3742655487163043 pbc="F F F"
Cd       0.00000000       0.00000000       0.00000000       0.00000000       0.00000000       0.02923585
Cd       0.00000000       0.00000000       3.64848485       0.00000000       0.00000000      -0.02923585
2
Properties=species:S:1:pos:R:3:forces:R:3 energy=-0.37262862780483985 pbc="F F F"
Cd       0.00000000       0.00000000       0.00000000       0.00000000       0.00000000       0.02593633
Cd       0.00000000       0.00000000       3.70727273       0.00000000       0.00000000      -0.02593633
2
Properties=species:S:1:pos:R:3:forces:R:3 energy=-0.37125633518061724 pbc="F F F"
Cd       0.00000000       0.00000000       0.00000000       0.00000000       0.00000000       0.02057896
Cd       0.00000000       0.00000000       3.76606061       0.00000000       0.00000000      -0.02057896
2
Properties=species:S:1:pos:R:3:forces:R:3 energy=-0.3702132089749929 pbc="F F F"
Cd       0.00000000       0.00000000       0.00000000       0.00000000       0.00000000       0.01498221
Cd       0.00000000       0.00000000       3.82484848       0.00000000       0.00000000      -0.01498221
2
Properties=species:S:1:pos:R:3:forces:R:3 energy=-0.36947491100641594 pbc="F F F"
Cd       0.00000000       0.00000000       0.00000000       0.00000000       0.00000000       0.01036901
Cd       0.00000000       0.00000000       3.88363636       0.00000000       0.00000000      -0.01036901
2
Properties=species:S:1:pos:R:3:forces:R:3 energy=-0.3689622212668011 pbc="F F F"
Cd       0.00000000       0.00000000       0.00000000       0.00000000       0.00000000       0.00735742
Cd       0.00000000       0.00000000       3.94242424       0.00000000       0.00000000      -0.00735742
2
Properties=species:S:1:pos:R:3:forces:R:3 energy=-0.3685759281055304 pbc="F F F"
Cd       0.00000000       0.00000000       0.00000000       0.00000000       0.00000000       0.00606732
Cd       0.00000000       0.00000000       4.00121212       0.00000000       0.00000000      -0.00606732
2
Properties=species:S:1:pos:R:3:forces:R:3 energy=-0.36821943189302947 pbc="F F F"
Cd       0.00000000       0.00000000       0.00000000       0.00000000       0.00000000       0.00628394
Cd       0.00000000       0.00000000       4.06000000       0.00000000       0.00000000      -0.00628394
2
Properties=species:S:1:pos:R:3:forces:R:3 energy=-0.367814942689017 pbc="F F F"
Cd       0.00000000       0.00000000       0.00000000       0.00000000       0.00000000       0.00762717
Cd       0.00000000       0.00000000       4.11878788       0.00000000       0.00000000      -0.00762717
2
Properties=species:S:1:pos:R:3:forces:R:3 energy=-0.3673085349219108 pbc="F F F"
Cd       0.00000000       0.00000000       0.00000000       0.00000000       0.00000000       0.00968997
Cd       0.00000000       0.00000000       4.17757576       0.00000000       0.00000000      -0.00968997
2
Properties=species:S:1:pos:R:3:forces:R:3 energy=-0.3666684568679953 pbc="F F F"
Cd       0.00000000       0.00000000       0.00000000       0.00000000       0.00000000       0.01212181
Cd       0.00000000       0.00000000       4.23636364       0.00000000       0.00000000      -0.01212181
2
Properties=species:S:1:pos:R:3:forces:R:3 energy=-0.3658811810297266 pbc="F F F"
Cd       0.00000000       0.00000000       0.00000000       0.00000000       0.00000000       0.01466367
Cd       0.00000000       0.00000000       4.29515152       0.00000000       0.00000000      -0.01466367
2
Properties=species:S:1:pos:R:3:forces:R:3 energy=-0.3649457619933346 pbc="F F F"
Cd       0.00000000       0.00000000       0.00000000       0.00000000       0.00000000       0.01713723
Cd       0.00000000       0.00000000       4.35393939       0.00000000       0.00000000      -0.01713723
2
Properties=species:S:1:pos:R:3:forces:R:3 energy=-0.36387015961174596 pbc="F F F"
Cd       0.00000000       0.00000000       0.00000000       0.00000000       0.00000000       0.01941501
Cd       0.00000000       0.00000000       4.41272727       0.00000000       0.00000000      -0.01941501
2
Properties=species:S:1:pos:R:3:forces:R:3 energy=-0.3626689898671931 pbc="F F F"
Cd       0.00000000       0.00000000       0.00000000       0.00000000       0.00000000       0.02138512
Cd       0.00000000       0.00000000       4.47151515       0.00000000       0.00000000      -0.02138512
2
Properties=species:S:1:pos:R:3:forces:R:3 energy=-0.3613640176714544 pbc="F F F"
Cd       0.00000000       0.00000000       0.00000000       0.00000000       0.00000000       0.02292991
Cd       0.00000000       0.00000000       4.53030303       0.00000000       0.00000000      -0.02292991
2
Properties=species:S:1:pos:R:3:forces:R:3 energy=-0.3599838228286345 pbc="F F F"
Cd       0.00000000       0.00000000       0.00000000       0.00000000       0.00000000       0.02392402
Cd       0.00000000       0.00000000       4.58909091       0.00000000       0.00000000      -0.02392402
2
Properties=species:S:1:pos:R:3:forces:R:3 energy=-0.35856429471130336 pbc="F F F"
Cd       0.00000000       0.00000000       0.00000000       0.00000000       0.00000000       0.02424999
Cd       0.00000000       0.00000000       4.64787879       0.00000000       0.00000000      -0.02424999
2
Properties=species:S:1:pos:R:3:forces:R:3 energy=-0.35714741036527825 pbc="F F F"
Cd       0.00000000       0.00000000       0.00000000       0.00000000       0.00000000       0.02382304
Cd       0.00000000       0.00000000       4.70666667       0.00000000       0.00000000      -0.02382304
2
Properties=species:S:1:pos:R:3:forces:R:3 energy=-0.35577849598775735 pbc="F F F"
Cd       0.00000000       0.00000000       0.00000000       0.00000000       0.00000000       0.02262133
Cd       0.00000000       0.00000000       4.76545455       0.00000000       0.00000000      -0.02262133
2
Properties=species:S:1:pos:R:3:forces:R:3 energy=-0.35450172548471615 pbc="F F F"
Cd       0.00000000       0.00000000       0.00000000       0.00000000       0.00000000       0.02070823
Cd       0.00000000       0.00000000       4.82424242       0.00000000       0.00000000      -0.02070823
2
Properties=species:S:1:pos:R:3:forces:R:3 energy=-0.3533545832825995 pbc="F F F"
Cd       0.00000000       0.00000000       0.00000000       0.00000000       0.00000000       0.01824509
Cd       0.00000000       0.00000000       4.88303030       0.00000000       0.00000000      -0.01824509
2
Properties=species:S:1:pos:R:3:forces:R:3 energy=-0.3523624790274599 pbc="F F F"
Cd       0.00000000       0.00000000       0.00000000       0.00000000       0.00000000       0.01548022
Cd       0.00000000       0.00000000       4.94181818       0.00000000       0.00000000      -0.01548022
2
Properties=species:S:1:pos:R:3:forces:R:3 energy=-0.35153458376335467 pbc="F F F"
Cd       0.00000000       0.00000000       0.00000000       0.00000000       0.00000000       0.01270983
Cd       0.00000000       0.00000000       5.00060606       0.00000000       0.00000000      -0.01270983
2
Properties=species:S:1:pos:R:3:forces:R:3 energy=-0.3508629944673841 pbc="F F F"
Cd       0.00000000       0.00000000       0.00000000       0.00000000       0.00000000       0.01019725
Cd       0.00000000       0.00000000       5.05939394       0.00000000       0.00000000      -0.01019725
2
Properties=species:S:1:pos:R:3:forces:R:3 energy=-0.3503279976813884 pbc="F F F"
Cd       0.00000000       0.00000000       0.00000000       0.00000000       0.00000000       0.00806731
Cd       0.00000000       0.00000000       5.11818182       0.00000000       0.00000000      -0.00806731
2
Properties=species:S:1:pos:R:3:forces:R:3 energy=-0.3499081844625787 pbc="F F F"
Cd       0.00000000       0.00000000       0.00000000       0.00000000       0.00000000       0.00625232
Cd       0.00000000       0.00000000       5.17696970       0.00000000       0.00000000      -0.00625232
2
Properties=species:S:1:pos:R:3:forces:R:3 energy=-0.3495892832503295 pbc="F F F"
Cd       0.00000000       0.00000000       0.00000000       0.00000000       0.00000000       0.00462514
Cd       0.00000000       0.00000000       5.23575758       0.00000000       0.00000000      -0.00462514
2
Properties=species:S:1:pos:R:3:forces:R:3 energy=-0.34935861088254627 pbc="F F F"
Cd       0.00000000       0.00000000       0.00000000       0.00000000       0.00000000       0.00330409
Cd       0.00000000       0.00000000       5.29454545       0.00000000       0.00000000      -0.00330409
2
Properties=species:S:1:pos:R:3:forces:R:3 energy=-0.34918663029381647 pbc="F F F"
Cd       0.00000000       0.00000000       0.00000000       0.00000000       0.00000000       0.00270106
Cd       0.00000000       0.00000000       5.35333333       0.00000000       0.00000000      -0.00270106
2
Properties=species:S:1:pos:R:3:forces:R:3 energy=-0.34902254927516296 pbc="F F F"
Cd       0.00000000       0.00000000       0.00000000       0.00000000       0.00000000       0.00302354
Cd       0.00000000       0.00000000       5.41212121       0.00000000       0.00000000      -0.00302354
2
Properties=species:S:1:pos:R:3:forces:R:3 energy=-0.3488195420343032 pbc="F F F"
Cd       0.00000000       0.00000000       0.00000000       0.00000000       0.00000000       0.00393377
Cd       0.00000000       0.00000000       5.47090909       0.00000000       0.00000000      -0.00393377
2
Properties=species:S:1:pos:R:3:forces:R:3 energy=-0.3485589088756718 pbc="F F F"
Cd       0.00000000       0.00000000       0.00000000       0.00000000       0.00000000       0.00491329
Cd       0.00000000       0.00000000       5.52969697       0.00000000       0.00000000      -0.00491329
2
Properties=species:S:1:pos:R:3:forces:R:3 energy=-0.3482451316827587 pbc="F F F"
Cd       0.00000000       0.00000000       0.00000000       0.00000000       0.00000000       0.00573993
Cd       0.00000000       0.00000000       5.58848485       0.00000000       0.00000000      -0.00573993
2
Properties=species:S:1:pos:R:3:forces:R:3 energy=-0.3478844640553105 pbc="F F F"
Cd       0.00000000       0.00000000       0.00000000       0.00000000       0.00000000       0.00654309
Cd       0.00000000       0.00000000       5.64727273       0.00000000       0.00000000      -0.00654309
2
Properties=species:S:1:pos:R:3:forces:R:3 energy=-0.3474736470245345 pbc="F F F"
Cd       0.00000000       0.00000000       0.00000000       0.00000000       0.00000000       0.00743817
Cd       0.00000000       0.00000000       5.70606061       0.00000000       0.00000000      -0.00743817
2
Properties=species:S:1:pos:R:3:forces:R:3 energy=-0.3470120571052766 pbc="F F F"
Cd       0.00000000       0.00000000       0.00000000       0.00000000       0.00000000       0.00823042
Cd       0.00000000       0.00000000       5.76484848       0.00000000       0.00000000      -0.00823042
2
Properties=species:S:1:pos:R:3:forces:R:3 energy=-0.3465137116722302 pbc="F F F"
Cd       0.00000000       0.00000000       0.00000000       0.00000000       0.00000000       0.00864608
Cd       0.00000000       0.00000000       5.82363636       0.00000000       0.00000000      -0.00864608
2
Properties=species:S:1:pos:R:3:forces:R:3 energy=-0.3460034508028607 pbc="F F F"
Cd       0.00000000       0.00000000       0.00000000       0.00000000       0.00000000       0.00865290
Cd       0.00000000       0.00000000       5.88242424       0.00000000       0.00000000      -0.00865290
2
Properties=species:S:1:pos:R:3:forces:R:3 energy=-0.3455015785779743 pbc="F F F"
Cd       0.00000000       0.00000000       0.00000000       0.00000000       0.00000000       0.00838998
Cd       0.00000000       0.00000000       5.94121212       0.00000000       0.00000000      -0.00838998
2
Properties=species:S:1:pos:R:3:forces:R:3 energy=-0.3450200312534185 pbc="F F F"
Cd       0.00000000       0.00000000       0.00000000       0.00000000       0.00000000       0.00797041
Cd       0.00000000       0.00000000       6.00000000       0.00000000       0.00000000      -0.00797041
