2
Properties=species:S:1:pos:R:3:forces:R:3 energy=10648.722546344909 pbc="F F F"
Ce       0.00000000       0.00000000       0.00000000       0.00000000       0.00000000 -180625.85937500
Ce       0.00000000       0.00000000       0.18000000       0.00000000       0.00000000  180625.85937500
2
Properties=species:S:1:pos:R:3:forces:R:3 energy=4273.015026813659 pbc="F F F"
Ce       0.00000000       0.00000000       0.00000000       0.00000000       0.00000000  -61205.16015625
Ce       0.00000000       0.00000000       0.23878788       0.00000000       0.00000000   61205.16015625
2
Properties=species:S:1:pos:R:3:forces:R:3 energy=1943.2609984933465 pbc="F F F"
Ce       0.00000000       0.00000000       0.00000000       0.00000000       0.00000000  -24428.15820312
Ce       0.00000000       0.00000000       0.29757576       0.00000000       0.00000000   24428.15820312
2
Properties=species:S:1:pos:R:3:forces:R:3 energy=968.7188232003776 pbc="F F F"
Ce       0.00000000       0.00000000       0.00000000       0.00000000       0.00000000  -10789.41503906
Ce       0.00000000       0.00000000       0.35636364       0.00000000       0.00000000   10789.41503906
2
Properties=species:S:1:pos:R:3:forces:R:3 energy=524.0708739816276 pbc="F F F"
Ce       0.00000000       0.00000000       0.00000000       0.00000000       0.00000000   -5114.16650391
Ce       0.00000000       0.00000000       0.41515152       0.00000000       0.00000000    5114.16650391
2
Properties=species:S:1:pos:R:3:forces:R:3 energy=307.92863155157096 pbc="F F F"
Ce       0.00000000       0.00000000       0.00000000       0.00000000       0.00000000   -2561.38012695
Ce       0.00000000       0.00000000       0.47393939       0.00000000       0.00000000    2561.38012695
2
Properties=species:S:1:pos:R:3:forces:R:3 energy=197.38572384147895 pbc="F F F"
Ce       0.00000000       0.00000000       0.00000000       0.00000000       0.00000000   -1342.57263184
Ce       0.00000000       0.00000000       0.53272727       0.00000000       0.00000000    1342.57263184
2
Properties=species:S:1:pos:R:3:forces:R:3 energy=138.4369781171077 pbc="F F F"
Ce       0.00000000       0.00000000       0.00000000       0.00000000       0.00000000    -730.00799561
Ce       0.00000000       0.00000000       0.59151515       0.00000000       0.00000000     730.00799561
2
Properties=species:S:1:pos:R:3:forces:R:3 energy=105.98275449063084 pbc="F F F"
Ce       0.00000000       0.00000000       0.00000000       0.00000000       0.00000000    -407.02255249
Ce       0.00000000       0.00000000       0.65030303       0.00000000       0.00000000     407.02255249
2
Properties=species:S:1:pos:R:3:forces:R:3 energy=87.78984526416339 pbc="F F F"
Ce       0.00000000       0.00000000       0.00000000       0.00000000       0.00000000    -228.81961060
Ce       0.00000000       0.00000000       0.70909091       0.00000000       0.00000000     228.81961060
2
Properties=species:S:1:pos:R:3:forces:R:3 energy=77.6069076595161 pbc="F F F"
Ce       0.00000000       0.00000000       0.00000000       0.00000000       0.00000000    -126.85353851
Ce       0.00000000       0.00000000       0.76787879       0.00000000       0.00000000     126.85353851
2
Properties=species:S:1:pos:R:3:forces:R:3 energy=72.0360153508743 pbc="F F F"
Ce       0.00000000       0.00000000       0.00000000       0.00000000       0.00000000     -68.23728180
Ce       0.00000000       0.00000000       0.82666667       0.00000000       0.00000000      68.23728180
2
Properties=species:S:1:pos:R:3:forces:R:3 energy=69.05009162496614 pbc="F F F"
Ce       0.00000000       0.00000000       0.00000000       0.00000000       0.00000000     -37.07650757
Ce       0.00000000       0.00000000       0.88545455       0.00000000       0.00000000      37.07650757
2
Properties=species:S:1:pos:R:3:forces:R:3 energy=67.31503765953802 pbc="F F F"
Ce       0.00000000       0.00000000       0.00000000       0.00000000       0.00000000     -24.40961075
Ce       0.00000000       0.00000000       0.94424242       0.00000000       0.00000000      24.40961075
2
Properties=species:S:1:pos:R:3:forces:R:3 energy=65.96021748093308 pbc="F F F"
Ce       0.00000000       0.00000000       0.00000000       0.00000000       0.00000000     -23.01420403
Ce       0.00000000       0.00000000       1.00303030       0.00000000       0.00000000      23.01420403
2
Properties=species:S:1:pos:R:3:forces:R:3 energy=64.49808226577808 pbc="F F F"
Ce       0.00000000       0.00000000       0.00000000       0.00000000       0.00000000     -27.41979980
Ce       0.00000000       0.00000000       1.06181818       0.00000000       0.00000000      27.41979980
2
Properties=species:S:1:pos:R:3:forces:R:3 energy=62.663853880033784 pbc="F F F"
Ce       0.00000000       0.00000000       0.00000000       0.00000000       0.00000000     -35.59584045
Ce       0.00000000       0.00000000       1.12060606       0.00000000       0.00000000      35.59584045
2
Properties=species:S:1:pos:R:3:forces:R:3 energy=60.23692457721923 pbc="F F F"
Ce       0.00000000       0.00000000       0.00000000       0.00000000       0.00000000     -47.62685776
Ce       0.00000000       0.00000000       1.17939394       0.00000000       0.00000000      47.62685776
2
Properties=species:S:1:pos:R:3:forces:R:3 energy=56.99194494215225 pbc="F F F"
Ce       0.00000000       0.00000000       0.00000000       0.00000000       0.00000000     -63.29868317
Ce       0.00000000       0.00000000       1.23818182       0.00000000       0.00000000      63.29868317
2
Properties=species:S:1:pos:R:3:forces:R:3 energy=52.749170262293426 pbc="F F F"
Ce       0.00000000       0.00000000       0.00000000       0.00000000       0.00000000     -81.24991608
Ce       0.00000000       0.00000000       1.29696970       0.00000000       0.00000000      81.24991608
2
Properties=species:S:1:pos:R:3:forces:R:3 energy=47.441103300063894 pbc="F F F"
Ce       0.00000000       0.00000000       0.00000000       0.00000000       0.00000000     -99.07157135
Ce       0.00000000       0.00000000       1.35575758       0.00000000       0.00000000      99.07157135
2
Properties=species:S:1:pos:R:3:forces:R:3 energy=41.159758382463 pbc="F F F"
Ce       0.00000000       0.00000000       0.00000000       0.00000000       0.00000000    -113.90033722
Ce       0.00000000       0.00000000       1.41454545       0.00000000       0.00000000     113.90033722
2
Properties=species:S:1:pos:R:3:forces:R:3 energy=34.15618075396454 pbc="F F F"
Ce       0.00000000       0.00000000       0.00000000       0.00000000       0.00000000    -123.28903961
Ce       0.00000000       0.00000000       1.47333333       0.00000000       0.00000000     123.28903961
2
Properties=species:S:1:pos:R:3:forces:R:3 energy=26.80717860324718 pbc="F F F"
Ce       0.00000000       0.00000000       0.00000000       0.00000000       0.00000000    -125.38172913
Ce       0.00000000       0.00000000       1.53212121       0.00000000       0.00000000     125.38172913
2
Properties=species:S:1:pos:R:3:forces:R:3 energy=19.58399867184603 pbc="F F F"
Ce       0.00000000       0.00000000       0.00000000       0.00000000       0.00000000    -118.85339355
Ce       0.00000000       0.00000000       1.59090909       0.00000000       0.00000000     118.85339355
2
Properties=species:S:1:pos:R:3:forces:R:3 energy=13.006344854906658 pbc="F F F"
Ce       0.00000000       0.00000000       0.00000000       0.00000000       0.00000000    -103.56498718
Ce       0.00000000       0.00000000       1.64969697       0.00000000       0.00000000     103.56498718
2
Properties=species:S:1:pos:R:3:forces:R:3 energy=7.529320101471701 pbc="F F F"
Ce       0.00000000       0.00000000       0.00000000       0.00000000       0.00000000     -82.20378876
Ce       0.00000000       0.00000000       1.70848485       0.00000000       0.00000000      82.20378876
2
Properties=species:S:1:pos:R:3:forces:R:3 energy=3.337981369623233 pbc="F F F"
Ce       0.00000000       0.00000000       0.00000000       0.00000000       0.00000000     -60.93323898
Ce       0.00000000       0.00000000       1.76727273       0.00000000       0.00000000      60.93323898
2
Properties=species:S:1:pos:R:3:forces:R:3 energy=0.27343320957314293 pbc="F F F"
Ce       0.00000000       0.00000000       0.00000000       0.00000000       0.00000000     -44.13582230
Ce       0.00000000       0.00000000       1.82606061       0.00000000       0.00000000      44.13582230
2
Properties=species:S:1:pos:R:3:forces:R:3 energy=-1.9323170724059386 pbc="F F F"
Ce       0.00000000       0.00000000       0.00000000       0.00000000       0.00000000     -31.47129250
Ce       0.00000000       0.00000000       1.88484848       0.00000000       0.00000000      31.47129250
2
Properties=species:S:1:pos:R:3:forces:R:3 energy=-3.485391110333496 pbc="F F F"
Ce       0.00000000       0.00000000       0.00000000       0.00000000       0.00000000     -21.82798004
Ce       0.00000000       0.00000000       1.94363636       0.00000000       0.00000000      21.82798004
2
Properties=species:S:1:pos:R:3:forces:R:3 energy=-4.550858424099034 pbc="F F F"
Ce       0.00000000       0.00000000       0.00000000       0.00000000       0.00000000     -14.83576775
Ce       0.00000000       0.00000000       2.00242424       0.00000000       0.00000000      14.83576775
2
Properties=species:S:1:pos:R:3:forces:R:3 energy=-5.2733410425764795 pbc="F F F"
Ce       0.00000000       0.00000000       0.00000000       0.00000000       0.00000000     -10.06063175
Ce       0.00000000       0.00000000       2.06121212       0.00000000       0.00000000      10.06063175
2
Properties=species:S:1:pos:R:3:forces:R:3 energy=-5.764117908430362 pbc="F F F"
Ce       0.00000000       0.00000000       0.00000000       0.00000000       0.00000000      -6.83855438
Ce       0.00000000       0.00000000       2.12000000       0.00000000       0.00000000       6.83855438
2
Properties=species:S:1:pos:R:3:forces:R:3 energy=-6.095824596267716 pbc="F F F"
Ce       0.00000000       0.00000000       0.00000000       0.00000000       0.00000000      -4.56507587
Ce       0.00000000       0.00000000       2.17878788       0.00000000       0.00000000       4.56507587
2
Properties=species:S:1:pos:R:3:forces:R:3 energy=-6.311699183551727 pbc="F F F"
Ce       0.00000000       0.00000000       0.00000000       0.00000000       0.00000000      -2.85136795
Ce       0.00000000       0.00000000       2.23757576       0.00000000       0.00000000       2.85136795
2
Properties=species:S:1:pos:R:3:forces:R:3 energy=-6.438179816236038 pbc="F F F"
Ce       0.00000000       0.00000000       0.00000000       0.00000000       0.00000000      -1.50412655
Ce       0.00000000       0.00000000       2.29636364       0.00000000       0.00000000       1.50412655
2
Properties=species:S:1:pos:R:3:forces:R:3 energy=-6.4942640605863975 pbc="F F F"
Ce       0.00000000       0.00000000       0.00000000       0.00000000       0.00000000      -0.45007825
Ce       0.00000000       0.00000000       2.35515152       0.00000000       0.00000000       0.45007825
2
Properties=species:S:1:pos:R:3:forces:R:3 energy=-6.4963311589454875 pbc="F F F"
Ce       0.00000000       0.00000000       0.00000000       0.00000000       0.00000000       0.33722609
Ce       0.00000000       0.00000000       2.41393939       0.00000000       0.00000000      -0.33722609
2
Properties=species:S:1:pos:R:3:forces:R:3 energy=-6.4592296984586 pbc="F F F"
Ce       0.00000000       0.00000000       0.00000000       0.00000000       0.00000000       0.88991636
Ce       0.00000000       0.00000000       2.47272727       0.00000000       0.00000000      -0.88991636
2
Properties=species:S:1:pos:R:3:forces:R:3 energy=-6.39522093834715 pbc="F F F"
Ce       0.00000000       0.00000000       0.00000000       0.00000000       0.00000000       1.26313007
Ce       0.00000000       0.00000000       2.53151515       0.00000000       0.00000000      -1.26313007
2
Properties=species:S:1:pos:R:3:forces:R:3 energy=-6.313003670000598 pbc="F F F"
Ce       0.00000000       0.00000000       0.00000000       0.00000000       0.00000000       1.51889265
Ce       0.00000000       0.00000000       2.59030303       0.00000000       0.00000000      -1.51889265
2
Properties=species:S:1:pos:R:3:forces:R:3 energy=-6.218038470995755 pbc="F F F"
Ce       0.00000000       0.00000000       0.00000000       0.00000000       0.00000000       1.70220232
Ce       0.00000000       0.00000000       2.64909091       0.00000000       0.00000000      -1.70220232
2
Properties=species:S:1:pos:R:3:forces:R:3 energy=-6.113876658176256 pbc="F F F"
Ce       0.00000000       0.00000000       0.00000000       0.00000000       0.00000000       1.83337414
Ce       0.00000000       0.00000000       2.70787879       0.00000000       0.00000000      -1.83337414
2
Properties=species:S:1:pos:R:3:forces:R:3 energy=-6.003403855202484 pbc="F F F"
Ce       0.00000000       0.00000000       0.00000000       0.00000000       0.00000000       1.91731071
Ce       0.00000000       0.00000000       2.76666667       0.00000000       0.00000000      -1.91731071
2
Properties=species:S:1:pos:R:3:forces:R:3 energy=-5.889332115425326 pbc="F F F"
Ce       0.00000000       0.00000000       0.00000000       0.00000000       0.00000000       1.95632041
Ce       0.00000000       0.00000000       2.82545455       0.00000000       0.00000000      -1.95632041
2
Properties=species:S:1:pos:R:3:forces:R:3 energy=-5.774145058686488 pbc="F F F"
Ce       0.00000000       0.00000000       0.00000000       0.00000000       0.00000000       1.95681930
Ce       0.00000000       0.00000000       2.88424242       0.00000000       0.00000000      -1.95681930
2
Properties=species:S:1:pos:R:3:forces:R:3 energy=-5.659802732876239 pbc="F F F"
Ce       0.00000000       0.00000000       0.00000000       0.00000000       0.00000000       1.92942822
Ce       0.00000000       0.00000000       2.94303030       0.00000000       0.00000000      -1.92942822
2
Properties=species:S:1:pos:R:3:forces:R:3 energy=-5.54761379940025 pbc="F F F"
Ce       0.00000000       0.00000000       0.00000000       0.00000000       0.00000000       1.88537681
Ce       0.00000000       0.00000000       3.00181818       0.00000000       0.00000000      -1.88537681
2
Properties=species:S:1:pos:R:3:forces:R:3 energy=-5.438301824631972 pbc="F F F"
Ce       0.00000000       0.00000000       0.00000000       0.00000000       0.00000000       1.83237934
Ce       0.00000000       0.00000000       3.06060606       0.00000000       0.00000000      -1.83237934
2
Properties=species:S:1:pos:R:3:forces:R:3 energy=-5.332303306304324 pbc="F F F"
Ce       0.00000000       0.00000000       0.00000000       0.00000000       0.00000000       1.77254021
Ce       0.00000000       0.00000000       3.11939394       0.00000000       0.00000000      -1.77254021
2
Properties=species:S:1:pos:R:3:forces:R:3 energy=-5.23006711298985 pbc="F F F"
Ce       0.00000000       0.00000000       0.00000000       0.00000000       0.00000000       1.70382571
Ce       0.00000000       0.00000000       3.17818182       0.00000000       0.00000000      -1.70382571
2
Properties=species:S:1:pos:R:3:forces:R:3 energy=-5.132193733222208 pbc="F F F"
Ce       0.00000000       0.00000000       0.00000000       0.00000000       0.00000000       1.62400031
Ce       0.00000000       0.00000000       3.23696970       0.00000000       0.00000000      -1.62400031
2
Properties=species:S:1:pos:R:3:forces:R:3 energy=-5.039331313908295 pbc="F F F"
Ce       0.00000000       0.00000000       0.00000000       0.00000000       0.00000000       1.53374374
Ce       0.00000000       0.00000000       3.29575758       0.00000000       0.00000000      -1.53374374
2
Properties=species:S:1:pos:R:3:forces:R:3 energy=-4.951996382228054 pbc="F F F"
Ce       0.00000000       0.00000000       0.00000000       0.00000000       0.00000000       1.43667412
Ce       0.00000000       0.00000000       3.35454545       0.00000000       0.00000000      -1.43667412
2
Properties=species:S:1:pos:R:3:forces:R:3 energy=-4.870461296226034 pbc="F F F"
Ce       0.00000000       0.00000000       0.00000000       0.00000000       0.00000000       1.33710670
Ce       0.00000000       0.00000000       3.41333333       0.00000000       0.00000000      -1.33710670
2
Properties=species:S:1:pos:R:3:forces:R:3 energy=-4.79477047628169 pbc="F F F"
Ce       0.00000000       0.00000000       0.00000000       0.00000000       0.00000000       1.23824549
Ce       0.00000000       0.00000000       3.47212121       0.00000000       0.00000000      -1.23824549
2
Properties=species:S:1:pos:R:3:forces:R:3 energy=-4.724818107391427 pbc="F F F"
Ce       0.00000000       0.00000000       0.00000000       0.00000000       0.00000000       1.14226580
Ce       0.00000000       0.00000000       3.53090909       0.00000000       0.00000000      -1.14226580
2
Properties=species:S:1:pos:R:3:forces:R:3 energy=-4.660363896969568 pbc="F F F"
Ce       0.00000000       0.00000000       0.00000000       0.00000000       0.00000000       1.05164492
Ce       0.00000000       0.00000000       3.58969697       0.00000000       0.00000000      -1.05164492
2
Properties=species:S:1:pos:R:3:forces:R:3 energy=-4.600992054181463 pbc="F F F"
Ce       0.00000000       0.00000000       0.00000000       0.00000000       0.00000000       0.97009844
Ce       0.00000000       0.00000000       3.64848485       0.00000000       0.00000000      -0.97009844
2
Properties=species:S:1:pos:R:3:forces:R:3 energy=-4.546034058162967 pbc="F F F"
Ce       0.00000000       0.00000000       0.00000000       0.00000000       0.00000000       0.90228170
Ce       0.00000000       0.00000000       3.70727273       0.00000000       0.00000000      -0.90228170
2
Properties=species:S:1:pos:R:3:forces:R:3 energy=-4.494553850725966 pbc="F F F"
Ce       0.00000000       0.00000000       0.00000000       0.00000000       0.00000000       0.85234481
Ce       0.00000000       0.00000000       3.76606061       0.00000000       0.00000000      -0.85234481
2
Properties=species:S:1:pos:R:3:forces:R:3 energy=-4.44542749984201 pbc="F F F"
Ce       0.00000000       0.00000000       0.00000000       0.00000000       0.00000000       0.82230365
Ce       0.00000000       0.00000000       3.82484848       0.00000000       0.00000000      -0.82230365
2
Properties=species:S:1:pos:R:3:forces:R:3 energy=-4.397499119057409 pbc="F F F"
Ce       0.00000000       0.00000000       0.00000000       0.00000000       0.00000000       0.81117624
Ce       0.00000000       0.00000000       3.88363636       0.00000000       0.00000000      -0.81117624
2
Properties=species:S:1:pos:R:3:forces:R:3 energy=-4.349749175170961 pbc="F F F"
Ce       0.00000000       0.00000000       0.00000000       0.00000000       0.00000000       0.81547099
Ce       0.00000000       0.00000000       3.94242424       0.00000000       0.00000000      -0.81547099
2
Properties=species:S:1:pos:R:3:forces:R:3 energy=-4.301408967165792 pbc="F F F"
Ce       0.00000000       0.00000000       0.00000000       0.00000000       0.00000000       0.83052433
Ce       0.00000000       0.00000000       4.00121212       0.00000000       0.00000000      -0.83052433
2
Properties=species:S:1:pos:R:3:forces:R:3 energy=-4.251978243841626 pbc="F F F"
Ce       0.00000000       0.00000000       0.00000000       0.00000000       0.00000000       0.85182756
Ce       0.00000000       0.00000000       4.06000000       0.00000000       0.00000000      -0.85182756
2
Properties=species:S:1:pos:R:3:forces:R:3 energy=-4.2012056693304185 pbc="F F F"
Ce       0.00000000       0.00000000       0.00000000       0.00000000       0.00000000       0.87563479
Ce       0.00000000       0.00000000       4.11878788       0.00000000       0.00000000      -0.87563479
2
Properties=species:S:1:pos:R:3:forces:R:3 energy=-4.149036860517392 pbc="F F F"
Ce       0.00000000       0.00000000       0.00000000       0.00000000       0.00000000       0.89884776
Ce       0.00000000       0.00000000       4.17757576       0.00000000       0.00000000      -0.89884776
2
Properties=species:S:1:pos:R:3:forces:R:3 energy=-4.095589102000368 pbc="F F F"
Ce       0.00000000       0.00000000       0.00000000       0.00000000       0.00000000       0.91865134
Ce       0.00000000       0.00000000       4.23636364       0.00000000       0.00000000      -0.91865134
2
Properties=species:S:1:pos:R:3:forces:R:3 energy=-4.041145178884928 pbc="F F F"
Ce       0.00000000       0.00000000       0.00000000       0.00000000       0.00000000       0.93229800
Ce       0.00000000       0.00000000       4.29515152       0.00000000       0.00000000      -0.93229800
2
Properties=species:S:1:pos:R:3:forces:R:3 energy=-3.986144777876462 pbc="F F F"
Ce       0.00000000       0.00000000       0.00000000       0.00000000       0.00000000       0.93728465
Ce       0.00000000       0.00000000       4.35393939       0.00000000       0.00000000      -0.93728465
2
Properties=species:S:1:pos:R:3:forces:R:3 energy=-3.9311508892674385 pbc="F F F"
Ce       0.00000000       0.00000000       0.00000000       0.00000000       0.00000000       0.93177533
Ce       0.00000000       0.00000000       4.41272727       0.00000000       0.00000000      -0.93177533
2
Properties=species:S:1:pos:R:3:forces:R:3 energy=-3.876808086853892 pbc="F F F"
Ce       0.00000000       0.00000000       0.00000000       0.00000000       0.00000000       0.91514772
Ce       0.00000000       0.00000000       4.47151515       0.00000000       0.00000000      -0.91514772
2
Properties=species:S:1:pos:R:3:forces:R:3 energy=-3.8237512389622004 pbc="F F F"
Ce       0.00000000       0.00000000       0.00000000       0.00000000       0.00000000       0.88835746
Ce       0.00000000       0.00000000       4.53030303       0.00000000       0.00000000      -0.88835746
2
Properties=species:S:1:pos:R:3:forces:R:3 energy=-3.7725077314890756 pbc="F F F"
Ce       0.00000000       0.00000000       0.00000000       0.00000000       0.00000000       0.85407835
Ce       0.00000000       0.00000000       4.58909091       0.00000000       0.00000000      -0.85407835
2
Properties=species:S:1:pos:R:3:forces:R:3 energy=-3.723400701636672 pbc="F F F"
Ce       0.00000000       0.00000000       0.00000000       0.00000000       0.00000000       0.81639564
Ce       0.00000000       0.00000000       4.64787879       0.00000000       0.00000000      -0.81639564
2
Properties=species:S:1:pos:R:3:forces:R:3 energy=-3.676490641199817 pbc="F F F"
Ce       0.00000000       0.00000000       0.00000000       0.00000000       0.00000000       0.78012300
Ce       0.00000000       0.00000000       4.70666667       0.00000000       0.00000000      -0.78012300
2
Properties=species:S:1:pos:R:3:forces:R:3 energy=-3.6315608371935735 pbc="F F F"
Ce       0.00000000       0.00000000       0.00000000       0.00000000       0.00000000       0.74972880
Ce       0.00000000       0.00000000       4.76545455       0.00000000       0.00000000      -0.74972880
2
Properties=species:S:1:pos:R:3:forces:R:3 energy=-3.58816865085468 pbc="F F F"
Ce       0.00000000       0.00000000       0.00000000       0.00000000       0.00000000       0.72798461
Ce       0.00000000       0.00000000       4.82424242       0.00000000       0.00000000      -0.72798461
2
Properties=species:S:1:pos:R:3:forces:R:3 energy=-3.545801222396728 pbc="F F F"
Ce       0.00000000       0.00000000       0.00000000       0.00000000       0.00000000       0.71472555
Ce       0.00000000       0.00000000       4.88303030       0.00000000       0.00000000      -0.71472555
2
Properties=species:S:1:pos:R:3:forces:R:3 energy=-3.5040389992289347 pbc="F F F"
Ce       0.00000000       0.00000000       0.00000000       0.00000000       0.00000000       0.70628691
Ce       0.00000000       0.00000000       4.94181818       0.00000000       0.00000000      -0.70628691
2
Properties=species:S:1:pos:R:3:forces:R:3 energy=-3.4627746390578023 pbc="F F F"
Ce       0.00000000       0.00000000       0.00000000       0.00000000       0.00000000       0.69690365
Ce       0.00000000       0.00000000       5.00060606       0.00000000       0.00000000      -0.69690365
2
Properties=species:S:1:pos:R:3:forces:R:3 energy=-3.4221791433615096 pbc="F F F"
Ce       0.00000000       0.00000000       0.00000000       0.00000000       0.00000000       0.68377388
Ce       0.00000000       0.00000000       5.05939394       0.00000000       0.00000000      -0.68377388
2
Properties=species:S:1:pos:R:3:forces:R:3 energy=-3.3823005989212827 pbc="F F F"
Ce       0.00000000       0.00000000       0.00000000       0.00000000       0.00000000       0.67520428
Ce       0.00000000       0.00000000       5.11818182       0.00000000       0.00000000      -0.67520428
2
Properties=species:S:1:pos:R:3:forces:R:3 energy=-3.3422618929670747 pbc="F F F"
Ce       0.00000000       0.00000000       0.00000000       0.00000000       0.00000000       0.69376642
Ce       0.00000000       0.00000000       5.17696970       0.00000000       0.00000000      -0.69376642
2
Properties=species:S:1:pos:R:3:forces:R:3 energy=-3.2997988948059342 pbc="F F F"
Ce       0.00000000       0.00000000       0.00000000       0.00000000       0.00000000       0.75868094
Ce       0.00000000       0.00000000       5.23575758       0.00000000       0.00000000      -0.75868094
2
Properties=species:S:1:pos:R:3:forces:R:3 energy=-3.2524945135552574 pbc="F F F"
Ce       0.00000000       0.00000000       0.00000000       0.00000000       0.00000000       0.85084605
Ce       0.00000000       0.00000000       5.29454545       0.00000000       0.00000000      -0.85084605
2
Properties=species:S:1:pos:R:3:forces:R:3 energy=-3.2004239332709874 pbc="F F F"
Ce       0.00000000       0.00000000       0.00000000       0.00000000       0.00000000       0.90957236
Ce       0.00000000       0.00000000       5.35333333       0.00000000       0.00000000      -0.90957236
2
Properties=species:S:1:pos:R:3:forces:R:3 energy=-3.1470880074295966 pbc="F F F"
Ce       0.00000000       0.00000000       0.00000000       0.00000000       0.00000000       0.89238572
Ce       0.00000000       0.00000000       5.41212121       0.00000000       0.00000000      -0.89238572
2
Properties=species:S:1:pos:R:3:forces:R:3 energy=-3.0963798609300888 pbc="F F F"
Ce       0.00000000       0.00000000       0.00000000       0.00000000       0.00000000       0.83261424
Ce       0.00000000       0.00000000       5.47090909       0.00000000       0.00000000      -0.83261424
2
Properties=species:S:1:pos:R:3:forces:R:3 energy=-3.0481786494071357 pbc="F F F"
Ce       0.00000000       0.00000000       0.00000000       0.00000000       0.00000000       0.82406813
Ce       0.00000000       0.00000000       5.52969697       0.00000000       0.00000000      -0.82406813
2
Properties=species:S:1:pos:R:3:forces:R:3 energy=-2.996937873320749 pbc="F F F"
Ce       0.00000000       0.00000000       0.00000000       0.00000000       0.00000000       0.94158363
Ce       0.00000000       0.00000000       5.58848485       0.00000000       0.00000000      -0.94158363
2
Properties=species:S:1:pos:R:3:forces:R:3 energy=-2.935675309709723 pbc="F F F"
Ce       0.00000000       0.00000000       0.00000000       0.00000000       0.00000000       1.14585388
Ce       0.00000000       0.00000000       5.64727273       0.00000000       0.00000000      -1.14585388
2
Properties=species:S:1:pos:R:3:forces:R:3 energy=-2.8637480377091173 pbc="F F F"
Ce       0.00000000       0.00000000       0.00000000       0.00000000       0.00000000       1.27348781
Ce       0.00000000       0.00000000       5.70606061       0.00000000       0.00000000      -1.27348781
2
Properties=species:S:1:pos:R:3:forces:R:3 energy=-2.7903691173437384 pbc="F F F"
Ce       0.00000000       0.00000000       0.00000000       0.00000000       0.00000000       1.17472064
Ce       0.00000000       0.00000000       5.76484848       0.00000000       0.00000000      -1.17472064
2
Properties=species:S:1:pos:R:3:forces:R:3 energy=-2.730131274369862 pbc="F F F"
Ce       0.00000000       0.00000000       0.00000000       0.00000000       0.00000000       0.84955287
Ce       0.00000000       0.00000000       5.82363636       0.00000000       0.00000000      -0.84955287
2
Properties=species:S:1:pos:R:3:forces:R:3 energy=-2.692264908428214 pbc="F F F"
Ce       0.00000000       0.00000000       0.00000000       0.00000000       0.00000000       0.44343215
Ce       0.00000000       0.00000000       5.88242424       0.00000000       0.00000000      -0.44343215
2
Properties=species:S:1:pos:R:3:forces:R:3 energy=-2.676220201524953 pbc="F F F"
Ce       0.00000000       0.00000000       0.00000000       0.00000000       0.00000000       0.12585405
Ce       0.00000000       0.00000000       5.94121212       0.00000000       0.00000000      -0.12585405
2
Properties=species:S:1:pos:R:3:forces:R:3 energy=-2.6734674135546412 pbc="F F F"
Ce       0.00000000       0.00000000       0.00000000       0.00000000       0.00000000       0.00735437
Ce       0.00000000       0.00000000       6.00000000       0.00000000       0.00000000      -0.00735437
