2
Properties=species:S:1:pos:R:3:forces:R:3 energy=1877.132207468455 pbc="F F F"
Cl       0.00000000       0.00000000       0.00000000       0.00000000       0.00000000  -26744.01562500
Cl       0.00000000       0.00000000       0.18000000       0.00000000       0.00000000   26744.01562500
2
Properties=species:S:1:pos:R:3:forces:R:3 energy=887.1276298317363 pbc="F F F"
Cl       0.00000000       0.00000000       0.00000000       0.00000000       0.00000000  -10124.70410156
Cl       0.00000000       0.00000000       0.23878788       0.00000000       0.00000000   10124.70410156
2
Properties=species:S:1:pos:R:3:forces:R:3 energy=484.40537031658755 pbc="F F F"
Cl       0.00000000       0.00000000       0.00000000       0.00000000       0.00000000   -4475.47119141
Cl       0.00000000       0.00000000       0.29757576       0.00000000       0.00000000    4475.47119141
2
Properties=species:S:1:pos:R:3:forces:R:3 energy=298.01059493229815 pbc="F F F"
Cl       0.00000000       0.00000000       0.00000000       0.00000000       0.00000000   -2176.79418945
Cl       0.00000000       0.00000000       0.35636364       0.00000000       0.00000000    2176.79418945
2
Properties=species:S:1:pos:R:3:forces:R:3 energy=205.15050278821917 pbc="F F F"
Cl       0.00000000       0.00000000       0.00000000       0.00000000       0.00000000   -1106.75036621
Cl       0.00000000       0.00000000       0.41515152       0.00000000       0.00000000    1106.75036621
2
Properties=species:S:1:pos:R:3:forces:R:3 energy=157.96919789142459 pbc="F F F"
Cl       0.00000000       0.00000000       0.00000000       0.00000000       0.00000000    -555.57000732
Cl       0.00000000       0.00000000       0.47393939       0.00000000       0.00000000     555.57000732
2
Properties=species:S:1:pos:R:3:forces:R:3 energy=134.9547631434957 pbc="F F F"
Cl       0.00000000       0.00000000       0.00000000       0.00000000       0.00000000    -257.57550049
Cl       0.00000000       0.00000000       0.53272727       0.00000000       0.00000000     257.57550049
2
Properties=species:S:1:pos:R:3:forces:R:3 energy=124.91618903878732 pbc="F F F"
Cl       0.00000000       0.00000000       0.00000000       0.00000000       0.00000000    -102.86822510
Cl       0.00000000       0.00000000       0.59151515       0.00000000       0.00000000     102.86822510
2
Properties=species:S:1:pos:R:3:forces:R:3 energy=120.96835139926681 pbc="F F F"
Cl       0.00000000       0.00000000       0.00000000       0.00000000       0.00000000     -45.24770355
Cl       0.00000000       0.00000000       0.65030303       0.00000000       0.00000000      45.24770355
2
Properties=species:S:1:pos:R:3:forces:R:3 energy=118.21246943385849 pbc="F F F"
Cl       0.00000000       0.00000000       0.00000000       0.00000000       0.00000000     -58.24274063
Cl       0.00000000       0.00000000       0.70909091       0.00000000       0.00000000      58.24274063
2
Properties=species:S:1:pos:R:3:forces:R:3 energy=113.22822458973191 pbc="F F F"
Cl       0.00000000       0.00000000       0.00000000       0.00000000       0.00000000    -116.58495331
Cl       0.00000000       0.00000000       0.76787879       0.00000000       0.00000000     116.58495331
2
Properties=species:S:1:pos:R:3:forces:R:3 energy=104.21577408943521 pbc="F F F"
Cl       0.00000000       0.00000000       0.00000000       0.00000000       0.00000000    -189.16230774
Cl       0.00000000       0.00000000       0.82666667       0.00000000       0.00000000     189.16230774
2
Properties=species:S:1:pos:R:3:forces:R:3 energy=91.51802114620314 pbc="F F F"
Cl       0.00000000       0.00000000       0.00000000       0.00000000       0.00000000    -235.66868591
Cl       0.00000000       0.00000000       0.88545455       0.00000000       0.00000000     235.66868591
2
Properties=species:S:1:pos:R:3:forces:R:3 energy=77.25921817123849 pbc="F F F"
Cl       0.00000000       0.00000000       0.00000000       0.00000000       0.00000000    -245.29811096
Cl       0.00000000       0.00000000       0.94424242       0.00000000       0.00000000     245.29811096
2
Properties=species:S:1:pos:R:3:forces:R:3 energy=63.010650532721236 pbc="F F F"
Cl       0.00000000       0.00000000       0.00000000       0.00000000       0.00000000    -236.69483948
Cl       0.00000000       0.00000000       1.00303030       0.00000000       0.00000000     236.69483948
2
Properties=species:S:1:pos:R:3:forces:R:3 energy=49.76348353116836 pbc="F F F"
Cl       0.00000000       0.00000000       0.00000000       0.00000000       0.00000000    -211.70359802
Cl       0.00000000       0.00000000       1.06181818       0.00000000       0.00000000     211.70359802
2
Properties=species:S:1:pos:R:3:forces:R:3 energy=38.239850980452516 pbc="F F F"
Cl       0.00000000       0.00000000       0.00000000       0.00000000       0.00000000    -180.37573242
Cl       0.00000000       0.00000000       1.12060606       0.00000000       0.00000000     180.37573242
2
Properties=species:S:1:pos:R:3:forces:R:3 energy=28.530025983588878 pbc="F F F"
Cl       0.00000000       0.00000000       0.00000000       0.00000000       0.00000000    -150.06932068
Cl       0.00000000       0.00000000       1.17939394       0.00000000       0.00000000     150.06932068
2
Properties=species:S:1:pos:R:3:forces:R:3 energy=20.57226600190698 pbc="F F F"
Cl       0.00000000       0.00000000       0.00000000       0.00000000       0.00000000    -121.02279663
Cl       0.00000000       0.00000000       1.23818182       0.00000000       0.00000000     121.02279663
2
Properties=species:S:1:pos:R:3:forces:R:3 energy=14.251097566921754 pbc="F F F"
Cl       0.00000000       0.00000000       0.00000000       0.00000000       0.00000000     -94.46944427
Cl       0.00000000       0.00000000       1.29696970       0.00000000       0.00000000      94.46944427
2
Properties=species:S:1:pos:R:3:forces:R:3 energy=9.40118156035179 pbc="F F F"
Cl       0.00000000       0.00000000       0.00000000       0.00000000       0.00000000     -71.22421265
Cl       0.00000000       0.00000000       1.35575758       0.00000000       0.00000000      71.22421265
2
Properties=species:S:1:pos:R:3:forces:R:3 energy=5.780288887994533 pbc="F F F"
Cl       0.00000000       0.00000000       0.00000000       0.00000000       0.00000000     -52.82601166
Cl       0.00000000       0.00000000       1.41454545       0.00000000       0.00000000      52.82601166
2
Properties=species:S:1:pos:R:3:forces:R:3 energy=3.097128765971112 pbc="F F F"
Cl       0.00000000       0.00000000       0.00000000       0.00000000       0.00000000     -39.13373184
Cl       0.00000000       0.00000000       1.47333333       0.00000000       0.00000000      39.13373184
2
Properties=species:S:1:pos:R:3:forces:R:3 energy=1.1125132652717662 pbc="F F F"
Cl       0.00000000       0.00000000       0.00000000       0.00000000       0.00000000     -28.85913467
Cl       0.00000000       0.00000000       1.53212121       0.00000000       0.00000000      28.85913467
2
Properties=species:S:1:pos:R:3:forces:R:3 energy=-0.34401481475322765 pbc="F F F"
Cl       0.00000000       0.00000000       0.00000000       0.00000000       0.00000000     -21.04594612
Cl       0.00000000       0.00000000       1.59090909       0.00000000       0.00000000      21.04594612
2
Properties=species:S:1:pos:R:3:forces:R:3 energy=-1.3984778160507867 pbc="F F F"
Cl       0.00000000       0.00000000       0.00000000       0.00000000       0.00000000     -15.10123539
Cl       0.00000000       0.00000000       1.64969697       0.00000000       0.00000000      15.10123539
2
Properties=species:S:1:pos:R:3:forces:R:3 energy=-2.147944558832004 pbc="F F F"
Cl       0.00000000       0.00000000       0.00000000       0.00000000       0.00000000     -10.60611916
Cl       0.00000000       0.00000000       1.70848485       0.00000000       0.00000000      10.60611916
2
Properties=species:S:1:pos:R:3:forces:R:3 energy=-2.6666041962588056 pbc="F F F"
Cl       0.00000000       0.00000000       0.00000000       0.00000000       0.00000000      -7.19011354
Cl       0.00000000       0.00000000       1.76727273       0.00000000       0.00000000       7.19011354
2
Properties=species:S:1:pos:R:3:forces:R:3 energy=-3.008304076264331 pbc="F F F"
Cl       0.00000000       0.00000000       0.00000000       0.00000000       0.00000000      -4.54175568
Cl       0.00000000       0.00000000       1.82606061       0.00000000       0.00000000       4.54175568
2
Properties=species:S:1:pos:R:3:forces:R:3 energy=-3.2113728054402677 pbc="F F F"
Cl       0.00000000       0.00000000       0.00000000       0.00000000       0.00000000      -2.44549751
Cl       0.00000000       0.00000000       1.88484848       0.00000000       0.00000000       2.44549751
2
Properties=species:S:1:pos:R:3:forces:R:3 energy=-3.304028033905455 pbc="F F F"
Cl       0.00000000       0.00000000       0.00000000       0.00000000       0.00000000      -0.76953530
Cl       0.00000000       0.00000000       1.94363636       0.00000000       0.00000000       0.76953530
2
Properties=species:S:1:pos:R:3:forces:R:3 energy=-3.3087343017729243 pbc="F F F"
Cl       0.00000000       0.00000000       0.00000000       0.00000000       0.00000000       0.55435771
Cl       0.00000000       0.00000000       2.00242424       0.00000000       0.00000000      -0.55435771
2
Properties=species:S:1:pos:R:3:forces:R:3 energy=-3.2448365917677227 pbc="F F F"
Cl       0.00000000       0.00000000       0.00000000       0.00000000       0.00000000       1.57443130
Cl       0.00000000       0.00000000       2.06121212       0.00000000       0.00000000      -1.57443130
2
Properties=species:S:1:pos:R:3:forces:R:3 energy=-3.1278789796129938 pbc="F F F"
Cl       0.00000000       0.00000000       0.00000000       0.00000000       0.00000000       2.37846494
Cl       0.00000000       0.00000000       2.12000000       0.00000000       0.00000000      -2.37846494
2
Properties=species:S:1:pos:R:3:forces:R:3 energy=-2.9671179599281703 pbc="F F F"
Cl       0.00000000       0.00000000       0.00000000       0.00000000       0.00000000       3.08097100
Cl       0.00000000       0.00000000       2.17878788       0.00000000       0.00000000      -3.08097100
2
Properties=species:S:1:pos:R:3:forces:R:3 energy=-2.766944949674381 pbc="F F F"
Cl       0.00000000       0.00000000       0.00000000       0.00000000       0.00000000       3.70970488
Cl       0.00000000       0.00000000       2.23757576       0.00000000       0.00000000      -3.70970488
2
Properties=species:S:1:pos:R:3:forces:R:3 energy=-2.5351670382440665 pbc="F F F"
Cl       0.00000000       0.00000000       0.00000000       0.00000000       0.00000000       4.12075901
Cl       0.00000000       0.00000000       2.29636364       0.00000000       0.00000000      -4.12075901
2
Properties=species:S:1:pos:R:3:forces:R:3 energy=-2.29068090124624 pbc="F F F"
Cl       0.00000000       0.00000000       0.00000000       0.00000000       0.00000000       4.11838722
Cl       0.00000000       0.00000000       2.35515152       0.00000000       0.00000000      -4.11838722
2
Properties=species:S:1:pos:R:3:forces:R:3 energy=-2.059548348171253 pbc="F F F"
Cl       0.00000000       0.00000000       0.00000000       0.00000000       0.00000000       3.68507743
Cl       0.00000000       0.00000000       2.41393939       0.00000000       0.00000000      -3.68507743
2
Properties=species:S:1:pos:R:3:forces:R:3 energy=-1.861978207149984 pbc="F F F"
Cl       0.00000000       0.00000000       0.00000000       0.00000000       0.00000000       3.01941490
Cl       0.00000000       0.00000000       2.47272727       0.00000000       0.00000000      -3.01941490
2
Properties=species:S:1:pos:R:3:forces:R:3 energy=-1.7043578318469246 pbc="F F F"
Cl       0.00000000       0.00000000       0.00000000       0.00000000       0.00000000       2.35879660
Cl       0.00000000       0.00000000       2.53151515       0.00000000       0.00000000      -2.35879660
2
Properties=species:S:1:pos:R:3:forces:R:3 energy=-1.5819003646012835 pbc="F F F"
Cl       0.00000000       0.00000000       0.00000000       0.00000000       0.00000000       1.83410585
Cl       0.00000000       0.00000000       2.59030303       0.00000000       0.00000000      -1.83410585
2
Properties=species:S:1:pos:R:3:forces:R:3 energy=-1.4856703679827612 pbc="F F F"
Cl       0.00000000       0.00000000       0.00000000       0.00000000       0.00000000       1.46282125
Cl       0.00000000       0.00000000       2.64909091       0.00000000       0.00000000      -1.46282125
2
Properties=species:S:1:pos:R:3:forces:R:3 energy=-1.4076523992189456 pbc="F F F"
Cl       0.00000000       0.00000000       0.00000000       0.00000000       0.00000000       1.20645761
Cl       0.00000000       0.00000000       2.70787879       0.00000000       0.00000000      -1.20645761
2
Properties=species:S:1:pos:R:3:forces:R:3 energy=-1.3424921422525353 pbc="F F F"
Cl       0.00000000       0.00000000       0.00000000       0.00000000       0.00000000       1.01844847
Cl       0.00000000       0.00000000       2.76666667       0.00000000       0.00000000      -1.01844847
2
Properties=species:S:1:pos:R:3:forces:R:3 energy=-1.2872365278917497 pbc="F F F"
Cl       0.00000000       0.00000000       0.00000000       0.00000000       0.00000000       0.86523724
Cl       0.00000000       0.00000000       2.82545455       0.00000000       0.00000000      -0.86523724
2
Properties=species:S:1:pos:R:3:forces:R:3 energy=-1.2404368724700552 pbc="F F F"
Cl       0.00000000       0.00000000       0.00000000       0.00000000       0.00000000       0.72889888
Cl       0.00000000       0.00000000       2.88424242       0.00000000       0.00000000      -0.72889888
2
Properties=species:S:1:pos:R:3:forces:R:3 energy=-1.201339949220548 pbc="F F F"
Cl       0.00000000       0.00000000       0.00000000       0.00000000       0.00000000       0.60274369
Cl       0.00000000       0.00000000       2.94303030       0.00000000       0.00000000      -0.60274369
2
Properties=species:S:1:pos:R:3:forces:R:3 energy=-1.1693756630032353 pbc="F F F"
Cl       0.00000000       0.00000000       0.00000000       0.00000000       0.00000000       0.48651695
Cl       0.00000000       0.00000000       3.00181818       0.00000000       0.00000000      -0.48651695
2
Properties=species:S:1:pos:R:3:forces:R:3 energy=-1.1438868502031057 pbc="F F F"
Cl       0.00000000       0.00000000       0.00000000       0.00000000       0.00000000       0.38311097
Cl       0.00000000       0.00000000       3.06060606       0.00000000       0.00000000      -0.38311097
2
Properties=species:S:1:pos:R:3:forces:R:3 energy=-1.1240033286201596 pbc="F F F"
Cl       0.00000000       0.00000000       0.00000000       0.00000000       0.00000000       0.29643762
Cl       0.00000000       0.00000000       3.11939394       0.00000000       0.00000000      -0.29643762
2
Properties=species:S:1:pos:R:3:forces:R:3 energy=-1.1086381824786173 pbc="F F F"
Cl       0.00000000       0.00000000       0.00000000       0.00000000       0.00000000       0.22981988
Cl       0.00000000       0.00000000       3.17818182       0.00000000       0.00000000      -0.22981988
2
Properties=species:S:1:pos:R:3:forces:R:3 energy=-1.096559590527663 pbc="F F F"
Cl       0.00000000       0.00000000       0.00000000       0.00000000       0.00000000       0.18467090
Cl       0.00000000       0.00000000       3.23696970       0.00000000       0.00000000      -0.18467090
2
Properties=species:S:1:pos:R:3:forces:R:3 energy=-1.0865287650286974 pbc="F F F"
Cl       0.00000000       0.00000000       0.00000000       0.00000000       0.00000000       0.15970294
Cl       0.00000000       0.00000000       3.29575758       0.00000000       0.00000000      -0.15970294
2
Properties=species:S:1:pos:R:3:forces:R:3 energy=-1.0774623623250368 pbc="F F F"
Cl       0.00000000       0.00000000       0.00000000       0.00000000       0.00000000       0.15100147
Cl       0.00000000       0.00000000       3.35454545       0.00000000       0.00000000      -0.15100147
2
Properties=species:S:1:pos:R:3:forces:R:3 energy=-1.06856599724621 pbc="F F F"
Cl       0.00000000       0.00000000       0.00000000       0.00000000       0.00000000       0.15293425
Cl       0.00000000       0.00000000       3.41333333       0.00000000       0.00000000      -0.15293425
2
Properties=species:S:1:pos:R:3:forces:R:3 energy=-1.059390023552003 pbc="F F F"
Cl       0.00000000       0.00000000       0.00000000       0.00000000       0.00000000       0.15955214
Cl       0.00000000       0.00000000       3.47212121       0.00000000       0.00000000      -0.15955214
2
Properties=species:S:1:pos:R:3:forces:R:3 energy=-1.0498124636613448 pbc="F F F"
Cl       0.00000000       0.00000000       0.00000000       0.00000000       0.00000000       0.16591515
Cl       0.00000000       0.00000000       3.53090909       0.00000000       0.00000000      -0.16591515
2
Properties=species:S:1:pos:R:3:forces:R:3 energy=-1.0399497925863912 pbc="F F F"
Cl       0.00000000       0.00000000       0.00000000       0.00000000       0.00000000       0.16890694
Cl       0.00000000       0.00000000       3.58969697       0.00000000       0.00000000      -0.16890694
2
Properties=species:S:1:pos:R:3:forces:R:3 energy=-1.0300427057547847 pbc="F F F"
Cl       0.00000000       0.00000000       0.00000000       0.00000000       0.00000000       0.16739415
Cl       0.00000000       0.00000000       3.64848485       0.00000000       0.00000000      -0.16739415
2
Properties=species:S:1:pos:R:3:forces:R:3 energy=-1.0203476785698982 pbc="F F F"
Cl       0.00000000       0.00000000       0.00000000       0.00000000       0.00000000       0.16187549
Cl       0.00000000       0.00000000       3.70727273       0.00000000       0.00000000      -0.16187549
2
Properties=species:S:1:pos:R:3:forces:R:3 energy=-1.0110594285195211 pbc="F F F"
Cl       0.00000000       0.00000000       0.00000000       0.00000000       0.00000000       0.15384519
Cl       0.00000000       0.00000000       3.76606061       0.00000000       0.00000000      -0.15384519
2
Properties=species:S:1:pos:R:3:forces:R:3 energy=-1.0022719800875564 pbc="F F F"
Cl       0.00000000       0.00000000       0.00000000       0.00000000       0.00000000       0.14514884
Cl       0.00000000       0.00000000       3.82484848       0.00000000       0.00000000      -0.14514884
2
Properties=species:S:1:pos:R:3:forces:R:3 energy=-0.9939730981793483 pbc="F F F"
Cl       0.00000000       0.00000000       0.00000000       0.00000000       0.00000000       0.13747670
Cl       0.00000000       0.00000000       3.88363636       0.00000000       0.00000000      -0.13747670
2
Properties=species:S:1:pos:R:3:forces:R:3 energy=-0.9860637455783935 pbc="F F F"
Cl       0.00000000       0.00000000       0.00000000       0.00000000       0.00000000       0.13205068
Cl       0.00000000       0.00000000       3.94242424       0.00000000       0.00000000      -0.13205068
2
Properties=species:S:1:pos:R:3:forces:R:3 energy=-0.9783902395681867 pbc="F F F"
Cl       0.00000000       0.00000000       0.00000000       0.00000000       0.00000000       0.12951094
Cl       0.00000000       0.00000000       4.00121212       0.00000000       0.00000000      -0.12951094
2
Properties=species:S:1:pos:R:3:forces:R:3 energy=-0.9707776442045197 pbc="F F F"
Cl       0.00000000       0.00000000       0.00000000       0.00000000       0.00000000       0.12993217
Cl       0.00000000       0.00000000       4.06000000       0.00000000       0.00000000      -0.12993217
2
Properties=species:S:1:pos:R:3:forces:R:3 energy=-0.9630627514829304 pbc="F F F"
Cl       0.00000000       0.00000000       0.00000000       0.00000000       0.00000000       0.13292497
Cl       0.00000000       0.00000000       4.11878788       0.00000000       0.00000000      -0.13292497
2
Properties=species:S:1:pos:R:3:forces:R:3 energy=-0.9551125962084727 pbc="F F F"
Cl       0.00000000       0.00000000       0.00000000       0.00000000       0.00000000       0.13777544
Cl       0.00000000       0.00000000       4.17757576       0.00000000       0.00000000      -0.13777544
2
Properties=species:S:1:pos:R:3:forces:R:3 energy=-0.9468445570162056 pbc="F F F"
Cl       0.00000000       0.00000000       0.00000000       0.00000000       0.00000000       0.14359726
Cl       0.00000000       0.00000000       4.23636364       0.00000000       0.00000000      -0.14359726
2
Properties=species:S:1:pos:R:3:forces:R:3 energy=-0.9382276619217101 pbc="F F F"
Cl       0.00000000       0.00000000       0.00000000       0.00000000       0.00000000       0.14949118
Cl       0.00000000       0.00000000       4.29515152       0.00000000       0.00000000      -0.14949118
2
Properties=species:S:1:pos:R:3:forces:R:3 energy=-0.9292821065242184 pbc="F F F"
Cl       0.00000000       0.00000000       0.00000000       0.00000000       0.00000000       0.15469149
Cl       0.00000000       0.00000000       4.35393939       0.00000000       0.00000000      -0.15469149
2
Properties=species:S:1:pos:R:3:forces:R:3 energy=-0.9200631011478788 pbc="F F F"
Cl       0.00000000       0.00000000       0.00000000       0.00000000       0.00000000       0.15871330
Cl       0.00000000       0.00000000       4.41272727       0.00000000       0.00000000      -0.15871330
2
Properties=species:S:1:pos:R:3:forces:R:3 energy=-0.9106458763978272 pbc="F F F"
Cl       0.00000000       0.00000000       0.00000000       0.00000000       0.00000000       0.16146851
Cl       0.00000000       0.00000000       4.47151515       0.00000000       0.00000000      -0.16146851
2
Properties=species:S:1:pos:R:3:forces:R:3 energy=-0.9010957535009734 pbc="F F F"
Cl       0.00000000       0.00000000       0.00000000       0.00000000       0.00000000       0.16334918
Cl       0.00000000       0.00000000       4.53030303       0.00000000       0.00000000      -0.16334918
2
Properties=species:S:1:pos:R:3:forces:R:3 energy=-0.8914401101160895 pbc="F F F"
Cl       0.00000000       0.00000000       0.00000000       0.00000000       0.00000000       0.16524808
Cl       0.00000000       0.00000000       4.58909091       0.00000000       0.00000000      -0.16524808
2
Properties=species:S:1:pos:R:3:forces:R:3 energy=-0.8816406966441666 pbc="F F F"
Cl       0.00000000       0.00000000       0.00000000       0.00000000       0.00000000       0.16848867
Cl       0.00000000       0.00000000       4.64787879       0.00000000       0.00000000      -0.16848867
2
Properties=species:S:1:pos:R:3:forces:R:3 energy=-0.871573021524853 pbc="F F F"
Cl       0.00000000       0.00000000       0.00000000       0.00000000       0.00000000       0.17462359
Cl       0.00000000       0.00000000       4.70666667       0.00000000       0.00000000      -0.17462359
2
Properties=species:S:1:pos:R:3:forces:R:3 energy=-0.8610235656572617 pbc="F F F"
Cl       0.00000000       0.00000000       0.00000000       0.00000000       0.00000000       0.18508941
Cl       0.00000000       0.00000000       4.76545455       0.00000000       0.00000000      -0.18508941
2
Properties=species:S:1:pos:R:3:forces:R:3 energy=-0.8497093675694992 pbc="F F F"
Cl       0.00000000       0.00000000       0.00000000       0.00000000       0.00000000       0.20069350
Cl       0.00000000       0.00000000       4.82424242       0.00000000       0.00000000      -0.20069350
2
Properties=species:S:1:pos:R:3:forces:R:3 energy=-0.8373345666357792 pbc="F F F"
Cl       0.00000000       0.00000000       0.00000000       0.00000000       0.00000000       0.22100830
Cl       0.00000000       0.00000000       4.88303030       0.00000000       0.00000000      -0.22100830
2
Properties=species:S:1:pos:R:3:forces:R:3 energy=-0.8236728915490359 pbc="F F F"
Cl       0.00000000       0.00000000       0.00000000       0.00000000       0.00000000       0.24388736
Cl       0.00000000       0.00000000       4.94181818       0.00000000       0.00000000      -0.24388736
2
Properties=species:S:1:pos:R:3:forces:R:3 energy=-0.8086823824230706 pbc="F F F"
Cl       0.00000000       0.00000000       0.00000000       0.00000000       0.00000000       0.26548335
Cl       0.00000000       0.00000000       5.00060606       0.00000000       0.00000000      -0.26548335
2
Properties=species:S:1:pos:R:3:forces:R:3 energy=-0.7925679847770553 pbc="F F F"
Cl       0.00000000       0.00000000       0.00000000       0.00000000       0.00000000       0.28152817
Cl       0.00000000       0.00000000       5.05939394       0.00000000       0.00000000      -0.28152817
2
Properties=species:S:1:pos:R:3:forces:R:3 energy=-0.7757238514474336 pbc="F F F"
Cl       0.00000000       0.00000000       0.00000000       0.00000000       0.00000000       0.29054731
Cl       0.00000000       0.00000000       5.11818182       0.00000000       0.00000000      -0.29054731
2
Properties=species:S:1:pos:R:3:forces:R:3 energy=-0.7584422529057496 pbc="F F F"
Cl       0.00000000       0.00000000       0.00000000       0.00000000       0.00000000       0.29809812
Cl       0.00000000       0.00000000       5.17696970       0.00000000       0.00000000      -0.29809812
2
Properties=species:S:1:pos:R:3:forces:R:3 energy=-0.7404603443317299 pbc="F F F"
Cl       0.00000000       0.00000000       0.00000000       0.00000000       0.00000000       0.31653842
Cl       0.00000000       0.00000000       5.23575758       0.00000000       0.00000000      -0.31653842
2
Properties=species:S:1:pos:R:3:forces:R:3 energy=-0.7208668320651553 pbc="F F F"
Cl       0.00000000       0.00000000       0.00000000       0.00000000       0.00000000       0.35247067
Cl       0.00000000       0.00000000       5.29454545       0.00000000       0.00000000      -0.35247067
2
Properties=species:S:1:pos:R:3:forces:R:3 energy=-0.6989596864240668 pbc="F F F"
Cl       0.00000000       0.00000000       0.00000000       0.00000000       0.00000000       0.39083540
Cl       0.00000000       0.00000000       5.35333333       0.00000000       0.00000000      -0.39083540
2
Properties=species:S:1:pos:R:3:forces:R:3 energy=-0.6753879855088613 pbc="F F F"
Cl       0.00000000       0.00000000       0.00000000       0.00000000       0.00000000       0.40568233
Cl       0.00000000       0.00000000       5.41212121       0.00000000       0.00000000      -0.40568233
2
Properties=species:S:1:pos:R:3:forces:R:3 energy=-0.6518488285534422 pbc="F F F"
Cl       0.00000000       0.00000000       0.00000000       0.00000000       0.00000000       0.39152500
Cl       0.00000000       0.00000000       5.47090909       0.00000000       0.00000000      -0.39152500
2
Properties=species:S:1:pos:R:3:forces:R:3 energy=-0.6295090643382226 pbc="F F F"
Cl       0.00000000       0.00000000       0.00000000       0.00000000       0.00000000       0.36951506
Cl       0.00000000       0.00000000       5.52969697       0.00000000       0.00000000      -0.36951506
2
Properties=species:S:1:pos:R:3:forces:R:3 energy=-0.6080696735172867 pbc="F F F"
Cl       0.00000000       0.00000000       0.00000000       0.00000000       0.00000000       0.36355075
Cl       0.00000000       0.00000000       5.58848485       0.00000000       0.00000000      -0.36355075
2
Properties=species:S:1:pos:R:3:forces:R:3 energy=-0.5864779878846211 pbc="F F F"
Cl       0.00000000       0.00000000       0.00000000       0.00000000       0.00000000       0.37098002
Cl       0.00000000       0.00000000       5.64727273       0.00000000       0.00000000      -0.37098002
2
Properties=species:S:1:pos:R:3:forces:R:3 energy=-0.5648725812216256 pbc="F F F"
Cl       0.00000000       0.00000000       0.00000000       0.00000000       0.00000000       0.35757667
Cl       0.00000000       0.00000000       5.70606061       0.00000000       0.00000000      -0.35757667
2
Properties=species:S:1:pos:R:3:forces:R:3 energy=-0.5453718399354247 pbc="F F F"
Cl       0.00000000       0.00000000       0.00000000       0.00000000       0.00000000       0.29633185
Cl       0.00000000       0.00000000       5.76484848       0.00000000       0.00000000      -0.29633185
2
Properties=species:S:1:pos:R:3:forces:R:3 energy=-0.5307493731957903 pbc="F F F"
Cl       0.00000000       0.00000000       0.00000000       0.00000000       0.00000000       0.19855168
Cl       0.00000000       0.00000000       5.82363636       0.00000000       0.00000000      -0.19855168
2
Properties=species:S:1:pos:R:3:forces:R:3 energy=-0.5221022626994574 pbc="F F F"
Cl       0.00000000       0.00000000       0.00000000       0.00000000       0.00000000       0.09884240
Cl       0.00000000       0.00000000       5.88242424       0.00000000       0.00000000      -0.09884240
2
Properties=species:S:1:pos:R:3:forces:R:3 energy=-0.5185611557753688 pbc="F F F"
Cl       0.00000000       0.00000000       0.00000000       0.00000000       0.00000000       0.02746157
Cl       0.00000000       0.00000000       5.94121212       0.00000000       0.00000000      -0.02746157
2
Properties=species:S:1:pos:R:3:forces:R:3 energy=-0.5179685592136144 pbc="F F F"
Cl       0.00000000       0.00000000       0.00000000       0.00000000       0.00000000       0.00142215
Cl       0.00000000       0.00000000       6.00000000       0.00000000       0.00000000      -0.00142215
