2
Properties=species:S:1:pos:R:3:forces:R:3 energy=13006.777310185586 pbc="F F F"
Cr       0.00000000       0.00000000       0.00000000       0.00000000       0.00000000 -288363.78125000
Cr       0.00000000       0.00000000       0.10000000       0.00000000       0.00000000  288363.78125000
2
Properties=species:S:1:pos:R:3:forces:R:3 energy=4188.3959625293355 pbc="F F F"
Cr       0.00000000       0.00000000       0.00000000       0.00000000       0.00000000  -69290.36718750
Cr       0.00000000       0.00000000       0.15959596       0.00000000       0.00000000   69290.36718750
2
Properties=species:S:1:pos:R:3:forces:R:3 energy=1723.7207916308978 pbc="F F F"
Cr       0.00000000       0.00000000       0.00000000       0.00000000       0.00000000  -23294.36914062
Cr       0.00000000       0.00000000       0.21919192       0.00000000       0.00000000   23294.36914062
2
Properties=species:S:1:pos:R:3:forces:R:3 energy=818.2993438801594 pbc="F F F"
Cr       0.00000000       0.00000000       0.00000000       0.00000000       0.00000000   -9506.18750000
Cr       0.00000000       0.00000000       0.27878788       0.00000000       0.00000000    9506.18750000
2
Properties=species:S:1:pos:R:3:forces:R:3 energy=426.9937103352376 pbc="F F F"
Cr       0.00000000       0.00000000       0.00000000       0.00000000       0.00000000   -4386.25292969
Cr       0.00000000       0.00000000       0.33838384       0.00000000       0.00000000    4386.25292969
2
Properties=species:S:1:pos:R:3:forces:R:3 energy=239.42869264137792 pbc="F F F"
Cr       0.00000000       0.00000000       0.00000000       0.00000000       0.00000000   -2193.79443359
Cr       0.00000000       0.00000000       0.39797980       0.00000000       0.00000000    2193.79443359
2
Properties=species:S:1:pos:R:3:forces:R:3 energy=143.1375244443264 pbc="F F F"
Cr       0.00000000       0.00000000       0.00000000       0.00000000       0.00000000   -1159.15930176
Cr       0.00000000       0.00000000       0.45757576       0.00000000       0.00000000    1159.15930176
2
Properties=species:S:1:pos:R:3:forces:R:3 energy=91.31710516131336 pbc="F F F"
Cr       0.00000000       0.00000000       0.00000000       0.00000000       0.00000000    -636.44714355
Cr       0.00000000       0.00000000       0.51717172       0.00000000       0.00000000     636.44714355
2
Properties=species:S:1:pos:R:3:forces:R:3 energy=62.491604723717266 pbc="F F F"
Cr       0.00000000       0.00000000       0.00000000       0.00000000       0.00000000    -359.09207153
Cr       0.00000000       0.00000000       0.57676768       0.00000000       0.00000000     359.09207153
2
Properties=species:S:1:pos:R:3:forces:R:3 energy=46.06540013101981 pbc="F F F"
Cr       0.00000000       0.00000000       0.00000000       0.00000000       0.00000000    -207.02137756
Cr       0.00000000       0.00000000       0.63636364       0.00000000       0.00000000     207.02137756
2
Properties=species:S:1:pos:R:3:forces:R:3 energy=36.4902316544492 pbc="F F F"
Cr       0.00000000       0.00000000       0.00000000       0.00000000       0.00000000    -122.60182953
Cr       0.00000000       0.00000000       0.69595960       0.00000000       0.00000000     122.60182953
2
Properties=species:S:1:pos:R:3:forces:R:3 energy=30.688706753894305 pbc="F F F"
Cr       0.00000000       0.00000000       0.00000000       0.00000000       0.00000000     -77.06007385
Cr       0.00000000       0.00000000       0.75555556       0.00000000       0.00000000      77.06007385
2
Properties=species:S:1:pos:R:3:forces:R:3 energy=26.829629617063237 pbc="F F F"
Cr       0.00000000       0.00000000       0.00000000       0.00000000       0.00000000     -55.66407394
Cr       0.00000000       0.00000000       0.81515152       0.00000000       0.00000000      55.66407394
2
Properties=species:S:1:pos:R:3:forces:R:3 energy=23.740797218005017 pbc="F F F"
Cr       0.00000000       0.00000000       0.00000000       0.00000000       0.00000000     -50.09806061
Cr       0.00000000       0.00000000       0.87474747       0.00000000       0.00000000      50.09806061
2
Properties=species:S:1:pos:R:3:forces:R:3 energy=20.666304462373255 pbc="F F F"
Cr       0.00000000       0.00000000       0.00000000       0.00000000       0.00000000     -54.20684814
Cr       0.00000000       0.00000000       0.93434343       0.00000000       0.00000000      54.20684814
2
Properties=species:S:1:pos:R:3:forces:R:3 energy=17.199096496562234 pbc="F F F"
Cr       0.00000000       0.00000000       0.00000000       0.00000000       0.00000000     -62.41498947
Cr       0.00000000       0.00000000       0.99393939       0.00000000       0.00000000      62.41498947
2
Properties=species:S:1:pos:R:3:forces:R:3 energy=13.236114587932892 pbc="F F F"
Cr       0.00000000       0.00000000       0.00000000       0.00000000       0.00000000     -70.20837402
Cr       0.00000000       0.00000000       1.05353535       0.00000000       0.00000000      70.20837402
2
Properties=species:S:1:pos:R:3:forces:R:3 energy=8.904281429438301 pbc="F F F"
Cr       0.00000000       0.00000000       0.00000000       0.00000000       0.00000000     -74.32897949
Cr       0.00000000       0.00000000       1.11313131       0.00000000       0.00000000      74.32897949
2
Properties=species:S:1:pos:R:3:forces:R:3 energy=4.500372943487684 pbc="F F F"
Cr       0.00000000       0.00000000       0.00000000       0.00000000       0.00000000     -72.24580383
Cr       0.00000000       0.00000000       1.17272727       0.00000000       0.00000000      72.24580383
2
Properties=species:S:1:pos:R:3:forces:R:3 energy=0.44305418270925984 pbc="F F F"
Cr       0.00000000       0.00000000       0.00000000       0.00000000       0.00000000     -62.81241226
Cr       0.00000000       0.00000000       1.23232323       0.00000000       0.00000000      62.81241226
2
Properties=species:S:1:pos:R:3:forces:R:3 energy=-2.9110691552172407 pbc="F F F"
Cr       0.00000000       0.00000000       0.00000000       0.00000000       0.00000000     -49.67167664
Cr       0.00000000       0.00000000       1.29191919       0.00000000       0.00000000      49.67167664
2
Properties=species:S:1:pos:R:3:forces:R:3 energy=-5.5175242175037384 pbc="F F F"
Cr       0.00000000       0.00000000       0.00000000       0.00000000       0.00000000     -38.36669159
Cr       0.00000000       0.00000000       1.35151515       0.00000000       0.00000000      38.36669159
2
Properties=species:S:1:pos:R:3:forces:R:3 energy=-7.549499951946334 pbc="F F F"
Cr       0.00000000       0.00000000       0.00000000       0.00000000       0.00000000     -30.23836517
Cr       0.00000000       0.00000000       1.41111111       0.00000000       0.00000000      30.23836517
2
Properties=species:S:1:pos:R:3:forces:R:3 energy=-9.144182187212516 pbc="F F F"
Cr       0.00000000       0.00000000       0.00000000       0.00000000       0.00000000     -23.25135612
Cr       0.00000000       0.00000000       1.47070707       0.00000000       0.00000000      23.25135612
2
Properties=species:S:1:pos:R:3:forces:R:3 energy=-10.305954710709035 pbc="F F F"
Cr       0.00000000       0.00000000       0.00000000       0.00000000       0.00000000     -15.63056564
Cr       0.00000000       0.00000000       1.53030303       0.00000000       0.00000000      15.63056564
2
Properties=species:S:1:pos:R:3:forces:R:3 energy=-11.012560373464316 pbc="F F F"
Cr       0.00000000       0.00000000       0.00000000       0.00000000       0.00000000      -8.29997444
Cr       0.00000000       0.00000000       1.58989899       0.00000000       0.00000000       8.29997444
2
Properties=species:S:1:pos:R:3:forces:R:3 energy=-11.333619117855323 pbc="F F F"
Cr       0.00000000       0.00000000       0.00000000       0.00000000       0.00000000      -2.81966209
Cr       0.00000000       0.00000000       1.64949495       0.00000000       0.00000000       2.81966209
2
Properties=species:S:1:pos:R:3:forces:R:3 energy=-11.38195045078616 pbc="F F F"
Cr       0.00000000       0.00000000       0.00000000       0.00000000       0.00000000       0.97623134
Cr       0.00000000       0.00000000       1.70909091       0.00000000       0.00000000      -0.97623134
2
Properties=species:S:1:pos:R:3:forces:R:3 energy=-11.246323511868102 pbc="F F F"
Cr       0.00000000       0.00000000       0.00000000       0.00000000       0.00000000       3.28978062
Cr       0.00000000       0.00000000       1.76868687       0.00000000       0.00000000      -3.28978062
2
Properties=species:S:1:pos:R:3:forces:R:3 energy=-11.022424076069917 pbc="F F F"
Cr       0.00000000       0.00000000       0.00000000       0.00000000       0.00000000       3.99870229
Cr       0.00000000       0.00000000       1.82828283       0.00000000       0.00000000      -3.99870229
2
Properties=species:S:1:pos:R:3:forces:R:3 energy=-10.789975570918294 pbc="F F F"
Cr       0.00000000       0.00000000       0.00000000       0.00000000       0.00000000       3.67630792
Cr       0.00000000       0.00000000       1.88787879       0.00000000       0.00000000      -3.67630792
2
Properties=species:S:1:pos:R:3:forces:R:3 energy=-10.595820865454531 pbc="F F F"
Cr       0.00000000       0.00000000       0.00000000       0.00000000       0.00000000       2.76513481
Cr       0.00000000       0.00000000       1.94747475       0.00000000       0.00000000      -2.76513481
2
Properties=species:S:1:pos:R:3:forces:R:3 energy=-10.466816596236052 pbc="F F F"
Cr       0.00000000       0.00000000       0.00000000       0.00000000       0.00000000       1.53088999
Cr       0.00000000       0.00000000       2.00707071       0.00000000       0.00000000      -1.53088999
2
Properties=species:S:1:pos:R:3:forces:R:3 energy=-10.414807044246619 pbc="F F F"
Cr       0.00000000       0.00000000       0.00000000       0.00000000       0.00000000       0.22283548
Cr       0.00000000       0.00000000       2.06666667       0.00000000       0.00000000      -0.22283548
2
Properties=species:S:1:pos:R:3:forces:R:3 energy=-10.43709536974647 pbc="F F F"
Cr       0.00000000       0.00000000       0.00000000       0.00000000       0.00000000      -0.92858046
Cr       0.00000000       0.00000000       2.12626263       0.00000000       0.00000000       0.92858046
2
Properties=species:S:1:pos:R:3:forces:R:3 energy=-10.519176018110443 pbc="F F F"
Cr       0.00000000       0.00000000       0.00000000       0.00000000       0.00000000      -1.76597679
Cr       0.00000000       0.00000000       2.18585859       0.00000000       0.00000000       1.76597679
2
Properties=species:S:1:pos:R:3:forces:R:3 energy=-10.640247136344163 pbc="F F F"
Cr       0.00000000       0.00000000       0.00000000       0.00000000       0.00000000      -2.23740792
Cr       0.00000000       0.00000000       2.24545455       0.00000000       0.00000000       2.23740792
2
Properties=species:S:1:pos:R:3:forces:R:3 energy=-10.779449650296518 pbc="F F F"
Cr       0.00000000       0.00000000       0.00000000       0.00000000       0.00000000      -2.38820148
Cr       0.00000000       0.00000000       2.30505051       0.00000000       0.00000000       2.38820148
2
Properties=species:S:1:pos:R:3:forces:R:3 energy=-10.920531243786254 pbc="F F F"
Cr       0.00000000       0.00000000       0.00000000       0.00000000       0.00000000      -2.31918740
Cr       0.00000000       0.00000000       2.36464646       0.00000000       0.00000000       2.31918740
2
Properties=species:S:1:pos:R:3:forces:R:3 energy=-11.05368636549651 pbc="F F F"
Cr       0.00000000       0.00000000       0.00000000       0.00000000       0.00000000      -2.13901091
Cr       0.00000000       0.00000000       2.42424242       0.00000000       0.00000000       2.13901091
2
Properties=species:S:1:pos:R:3:forces:R:3 energy=-11.175024990152274 pbc="F F F"
Cr       0.00000000       0.00000000       0.00000000       0.00000000       0.00000000      -1.93457806
Cr       0.00000000       0.00000000       2.48383838       0.00000000       0.00000000       1.93457806
2
Properties=species:S:1:pos:R:3:forces:R:3 energy=-11.284867457546854 pbc="F F F"
Cr       0.00000000       0.00000000       0.00000000       0.00000000       0.00000000      -1.75867748
Cr       0.00000000       0.00000000       2.54343434       0.00000000       0.00000000       1.75867748
2
Properties=species:S:1:pos:R:3:forces:R:3 energy=-11.385414711826856 pbc="F F F"
Cr       0.00000000       0.00000000       0.00000000       0.00000000       0.00000000      -1.61961734
Cr       0.00000000       0.00000000       2.60303030       0.00000000       0.00000000       1.61961734
2
Properties=species:S:1:pos:R:3:forces:R:3 energy=-11.477833297769926 pbc="F F F"
Cr       0.00000000       0.00000000       0.00000000       0.00000000       0.00000000      -1.47617209
Cr       0.00000000       0.00000000       2.66262626       0.00000000       0.00000000       1.47617209
2
Properties=species:S:1:pos:R:3:forces:R:3 energy=-11.560346217409947 pbc="F F F"
Cr       0.00000000       0.00000000       0.00000000       0.00000000       0.00000000      -1.28421187
Cr       0.00000000       0.00000000       2.72222222       0.00000000       0.00000000       1.28421187
2
Properties=species:S:1:pos:R:3:forces:R:3 energy=-11.630183956311548 pbc="F F F"
Cr       0.00000000       0.00000000       0.00000000       0.00000000       0.00000000      -1.05639243
Cr       0.00000000       0.00000000       2.78181818       0.00000000       0.00000000       1.05639243
2
Properties=species:S:1:pos:R:3:forces:R:3 energy=-11.686057395935492 pbc="F F F"
Cr       0.00000000       0.00000000       0.00000000       0.00000000       0.00000000      -0.81741869
Cr       0.00000000       0.00000000       2.84141414       0.00000000       0.00000000       0.81741869
2
Properties=species:S:1:pos:R:3:forces:R:3 energy=-11.72747594560851 pbc="F F F"
Cr       0.00000000       0.00000000       0.00000000       0.00000000       0.00000000      -0.57173520
Cr       0.00000000       0.00000000       2.90101010       0.00000000       0.00000000       0.57173520
2
Properties=species:S:1:pos:R:3:forces:R:3 energy=-11.754229989035931 pbc="F F F"
Cr       0.00000000       0.00000000       0.00000000       0.00000000       0.00000000      -0.32778057
Cr       0.00000000       0.00000000       2.96060606       0.00000000       0.00000000       0.32778057
2
Properties=species:S:1:pos:R:3:forces:R:3 energy=-11.766957889245752 pbc="F F F"
Cr       0.00000000       0.00000000       0.00000000       0.00000000       0.00000000      -0.10463874
Cr       0.00000000       0.00000000       3.02020202       0.00000000       0.00000000       0.10463874
2
Properties=species:S:1:pos:R:3:forces:R:3 energy=-11.76751132537983 pbc="F F F"
Cr       0.00000000       0.00000000       0.00000000       0.00000000       0.00000000       0.07805382
Cr       0.00000000       0.00000000       3.07979798       0.00000000       0.00000000      -0.07805382
2
Properties=species:S:1:pos:R:3:forces:R:3 energy=-11.758684641072815 pbc="F F F"
Cr       0.00000000       0.00000000       0.00000000       0.00000000       0.00000000       0.20931190
Cr       0.00000000       0.00000000       3.13939394       0.00000000       0.00000000      -0.20931190
2
Properties=species:S:1:pos:R:3:forces:R:3 energy=-11.743566846824917 pbc="F F F"
Cr       0.00000000       0.00000000       0.00000000       0.00000000       0.00000000       0.29036266
Cr       0.00000000       0.00000000       3.19898990       0.00000000       0.00000000      -0.29036266
2
Properties=species:S:1:pos:R:3:forces:R:3 energy=-11.724848058469773 pbc="F F F"
Cr       0.00000000       0.00000000       0.00000000       0.00000000       0.00000000       0.33270231
Cr       0.00000000       0.00000000       3.25858586       0.00000000       0.00000000      -0.33270231
2
Properties=species:S:1:pos:R:3:forces:R:3 energy=-11.704358570737268 pbc="F F F"
Cr       0.00000000       0.00000000       0.00000000       0.00000000       0.00000000       0.35251522
Cr       0.00000000       0.00000000       3.31818182       0.00000000       0.00000000      -0.35251522
2
Properties=species:S:1:pos:R:3:forces:R:3 energy=-11.682984483763246 pbc="F F F"
Cr       0.00000000       0.00000000       0.00000000       0.00000000       0.00000000       0.36438665
Cr       0.00000000       0.00000000       3.37777778       0.00000000       0.00000000      -0.36438665
2
Properties=species:S:1:pos:R:3:forces:R:3 energy=-11.660905522790372 pbc="F F F"
Cr       0.00000000       0.00000000       0.00000000       0.00000000       0.00000000       0.37705368
Cr       0.00000000       0.00000000       3.43737374       0.00000000       0.00000000      -0.37705368
2
Properties=species:S:1:pos:R:3:forces:R:3 energy=-11.637984422393231 pbc="F F F"
Cr       0.00000000       0.00000000       0.00000000       0.00000000       0.00000000       0.39250392
Cr       0.00000000       0.00000000       3.49696970       0.00000000       0.00000000      -0.39250392
2
Properties=species:S:1:pos:R:3:forces:R:3 energy=-11.61412185171512 pbc="F F F"
Cr       0.00000000       0.00000000       0.00000000       0.00000000       0.00000000       0.40792736
Cr       0.00000000       0.00000000       3.55656566       0.00000000       0.00000000      -0.40792736
2
Properties=species:S:1:pos:R:3:forces:R:3 energy=-11.589452025408885 pbc="F F F"
Cr       0.00000000       0.00000000       0.00000000       0.00000000       0.00000000       0.41887361
Cr       0.00000000       0.00000000       3.61616162       0.00000000       0.00000000      -0.41887361
2
Properties=species:S:1:pos:R:3:forces:R:3 energy=-11.564353327102916 pbc="F F F"
Cr       0.00000000       0.00000000       0.00000000       0.00000000       0.00000000       0.42194951
Cr       0.00000000       0.00000000       3.67575758       0.00000000       0.00000000      -0.42194951
2
Properties=species:S:1:pos:R:3:forces:R:3 energy=-11.539337683180449 pbc="F F F"
Cr       0.00000000       0.00000000       0.00000000       0.00000000       0.00000000       0.41611037
Cr       0.00000000       0.00000000       3.73535354       0.00000000       0.00000000      -0.41611037
2
Properties=species:S:1:pos:R:3:forces:R:3 energy=-11.514910550053097 pbc="F F F"
Cr       0.00000000       0.00000000       0.00000000       0.00000000       0.00000000       0.40256974
Cr       0.00000000       0.00000000       3.79494949       0.00000000       0.00000000      -0.40256974
2
Properties=species:S:1:pos:R:3:forces:R:3 energy=-11.4914583932628 pbc="F F F"
Cr       0.00000000       0.00000000       0.00000000       0.00000000       0.00000000       0.38384873
Cr       0.00000000       0.00000000       3.85454545       0.00000000       0.00000000      -0.38384873
2
Properties=species:S:1:pos:R:3:forces:R:3 energy=-11.469207647807997 pbc="F F F"
Cr       0.00000000       0.00000000       0.00000000       0.00000000       0.00000000       0.36265516
Cr       0.00000000       0.00000000       3.91414141       0.00000000       0.00000000      -0.36265516
2
Properties=species:S:1:pos:R:3:forces:R:3 energy=-11.448239919911893 pbc="F F F"
Cr       0.00000000       0.00000000       0.00000000       0.00000000       0.00000000       0.34105071
Cr       0.00000000       0.00000000       3.97373737       0.00000000       0.00000000      -0.34105071
2
Properties=species:S:1:pos:R:3:forces:R:3 energy=-11.428543548791987 pbc="F F F"
Cr       0.00000000       0.00000000       0.00000000       0.00000000       0.00000000       0.32011208
Cr       0.00000000       0.00000000       4.03333333       0.00000000       0.00000000      -0.32011208
2
Properties=species:S:1:pos:R:3:forces:R:3 energy=-11.410067769691132 pbc="F F F"
Cr       0.00000000       0.00000000       0.00000000       0.00000000       0.00000000       0.30001059
Cr       0.00000000       0.00000000       4.09292929       0.00000000       0.00000000      -0.30001059
2
Properties=species:S:1:pos:R:3:forces:R:3 energy=-11.392775039252053 pbc="F F F"
Cr       0.00000000       0.00000000       0.00000000       0.00000000       0.00000000       0.28036788
Cr       0.00000000       0.00000000       4.15252525       0.00000000       0.00000000      -0.28036788
2
Properties=species:S:1:pos:R:3:forces:R:3 energy=-11.376652346560613 pbc="F F F"
Cr       0.00000000       0.00000000       0.00000000       0.00000000       0.00000000       0.26065299
Cr       0.00000000       0.00000000       4.21212121       0.00000000       0.00000000      -0.26065299
2
Properties=species:S:1:pos:R:3:forces:R:3 energy=-11.361715721755983 pbc="F F F"
Cr       0.00000000       0.00000000       0.00000000       0.00000000       0.00000000       0.24051794
Cr       0.00000000       0.00000000       4.27171717       0.00000000       0.00000000      -0.24051794
2
Properties=species:S:1:pos:R:3:forces:R:3 energy=-11.347992981193915 pbc="F F F"
Cr       0.00000000       0.00000000       0.00000000       0.00000000       0.00000000       0.21996120
Cr       0.00000000       0.00000000       4.33131313       0.00000000       0.00000000      -0.21996120
2
Properties=species:S:1:pos:R:3:forces:R:3 energy=-11.335499571974456 pbc="F F F"
Cr       0.00000000       0.00000000       0.00000000       0.00000000       0.00000000       0.19934471
Cr       0.00000000       0.00000000       4.39090909       0.00000000       0.00000000      -0.19934471
2
Properties=species:S:1:pos:R:3:forces:R:3 energy=-11.324221218902728 pbc="F F F"
Cr       0.00000000       0.00000000       0.00000000       0.00000000       0.00000000       0.17928618
Cr       0.00000000       0.00000000       4.45050505       0.00000000       0.00000000      -0.17928618
2
Properties=species:S:1:pos:R:3:forces:R:3 energy=-11.314105179861171 pbc="F F F"
Cr       0.00000000       0.00000000       0.00000000       0.00000000       0.00000000       0.16049922
Cr       0.00000000       0.00000000       4.51010101       0.00000000       0.00000000      -0.16049922
2
Properties=species:S:1:pos:R:3:forces:R:3 energy=-11.305053265978378 pbc="F F F"
Cr       0.00000000       0.00000000       0.00000000       0.00000000       0.00000000       0.14363265
Cr       0.00000000       0.00000000       4.56969697       0.00000000       0.00000000      -0.14363265
2
Properties=species:S:1:pos:R:3:forces:R:3 energy=-11.296937125760758 pbc="F F F"
Cr       0.00000000       0.00000000       0.00000000       0.00000000       0.00000000       0.12916197
Cr       0.00000000       0.00000000       4.62929293       0.00000000       0.00000000      -0.12916197
2
Properties=species:S:1:pos:R:3:forces:R:3 energy=-11.289605605222167 pbc="F F F"
Cr       0.00000000       0.00000000       0.00000000       0.00000000       0.00000000       0.11733153
Cr       0.00000000       0.00000000       4.68888889       0.00000000       0.00000000      -0.11733153
2
Properties=species:S:1:pos:R:3:forces:R:3 energy=-11.282899037159558 pbc="F F F"
Cr       0.00000000       0.00000000       0.00000000       0.00000000       0.00000000       0.10815234
Cr       0.00000000       0.00000000       4.74848485       0.00000000       0.00000000      -0.10815234
2
Properties=species:S:1:pos:R:3:forces:R:3 energy=-11.276665301560879 pbc="F F F"
Cr       0.00000000       0.00000000       0.00000000       0.00000000       0.00000000       0.10144094
Cr       0.00000000       0.00000000       4.80808081       0.00000000       0.00000000      -0.10144094
2
Properties=species:S:1:pos:R:3:forces:R:3 energy=-11.270765642685655 pbc="F F F"
Cr       0.00000000       0.00000000       0.00000000       0.00000000       0.00000000       0.09686795
Cr       0.00000000       0.00000000       4.86767677       0.00000000       0.00000000      -0.09686795
2
Properties=species:S:1:pos:R:3:forces:R:3 energy=-11.265085102461658 pbc="F F F"
Cr       0.00000000       0.00000000       0.00000000       0.00000000       0.00000000       0.09400446
Cr       0.00000000       0.00000000       4.92727273       0.00000000       0.00000000      -0.09400446
2
Properties=species:S:1:pos:R:3:forces:R:3 energy=-11.259537314199067 pbc="F F F"
Cr       0.00000000       0.00000000       0.00000000       0.00000000       0.00000000       0.09234085
Cr       0.00000000       0.00000000       4.98686869       0.00000000       0.00000000      -0.09234085
2
Properties=species:S:1:pos:R:3:forces:R:3 energy=-11.254068399651114 pbc="F F F"
Cr       0.00000000       0.00000000       0.00000000       0.00000000       0.00000000       0.09124618
Cr       0.00000000       0.00000000       5.04646465       0.00000000       0.00000000      -0.09124618
2
Properties=species:S:1:pos:R:3:forces:R:3 energy=-11.248667434088988 pbc="F F F"
Cr       0.00000000       0.00000000       0.00000000       0.00000000       0.00000000       0.08986744
Cr       0.00000000       0.00000000       5.10606061       0.00000000       0.00000000      -0.08986744
2
Properties=species:S:1:pos:R:3:forces:R:3 energy=-11.243384775190096 pbc="F F F"
Cr       0.00000000       0.00000000       0.00000000       0.00000000       0.00000000       0.08702454
Cr       0.00000000       0.00000000       5.16565657       0.00000000       0.00000000      -0.08702454
2
Properties=species:S:1:pos:R:3:forces:R:3 energy=-11.238349232343602 pbc="F F F"
Cr       0.00000000       0.00000000       0.00000000       0.00000000       0.00000000       0.08141606
Cr       0.00000000       0.00000000       5.22525253       0.00000000       0.00000000      -0.08141606
2
Properties=species:S:1:pos:R:3:forces:R:3 energy=-11.2337500196983 pbc="F F F"
Cr       0.00000000       0.00000000       0.00000000       0.00000000       0.00000000       0.07239477
Cr       0.00000000       0.00000000       5.28484848       0.00000000       0.00000000      -0.07239477
2
Properties=species:S:1:pos:R:3:forces:R:3 energy=-11.22977300728717 pbc="F F F"
Cr       0.00000000       0.00000000       0.00000000       0.00000000       0.00000000       0.06078563
Cr       0.00000000       0.00000000       5.34444444       0.00000000       0.00000000      -0.06078563
2
Properties=species:S:1:pos:R:3:forces:R:3 energy=-11.226515877275325 pbc="F F F"
Cr       0.00000000       0.00000000       0.00000000       0.00000000       0.00000000       0.04861416
Cr       0.00000000       0.00000000       5.40404040       0.00000000       0.00000000      -0.04861416
2
Properties=species:S:1:pos:R:3:forces:R:3 energy=-11.223951993625876 pbc="F F F"
Cr       0.00000000       0.00000000       0.00000000       0.00000000       0.00000000       0.03769332
Cr       0.00000000       0.00000000       5.46363636       0.00000000       0.00000000      -0.03769332
2
Properties=species:S:1:pos:R:3:forces:R:3 energy=-11.221988625334456 pbc="F F F"
Cr       0.00000000       0.00000000       0.00000000       0.00000000       0.00000000       0.02843401
Cr       0.00000000       0.00000000       5.52323232       0.00000000       0.00000000      -0.02843401
2
Properties=species:S:1:pos:R:3:forces:R:3 energy=-11.220548108532524 pbc="F F F"
Cr       0.00000000       0.00000000       0.00000000       0.00000000       0.00000000       0.01997505
Cr       0.00000000       0.00000000       5.58282828       0.00000000       0.00000000      -0.01997505
2
Properties=species:S:1:pos:R:3:forces:R:3 energy=-11.219604082943562 pbc="F F F"
Cr       0.00000000       0.00000000       0.00000000       0.00000000       0.00000000       0.01177917
Cr       0.00000000       0.00000000       5.64242424       0.00000000       0.00000000      -0.01177917
2
Properties=species:S:1:pos:R:3:forces:R:3 energy=-11.219115808732484 pbc="F F F"
Cr       0.00000000       0.00000000       0.00000000       0.00000000       0.00000000       0.00505666
Cr       0.00000000       0.00000000       5.70202020       0.00000000       0.00000000      -0.00505666
2
Properties=species:S:1:pos:R:3:forces:R:3 energy=-11.218926136025075 pbc="F F F"
Cr       0.00000000       0.00000000       0.00000000       0.00000000       0.00000000       0.00204016
Cr       0.00000000       0.00000000       5.76161616       0.00000000       0.00000000      -0.00204016
2
Properties=species:S:1:pos:R:3:forces:R:3 energy=-11.21878345367246 pbc="F F F"
Cr       0.00000000       0.00000000       0.00000000       0.00000000       0.00000000       0.00342896
Cr       0.00000000       0.00000000       5.82121212       0.00000000       0.00000000      -0.00342896
2
Properties=species:S:1:pos:R:3:forces:R:3 energy=-11.21846479718521 pbc="F F F"
Cr       0.00000000       0.00000000       0.00000000       0.00000000       0.00000000       0.00736877
Cr       0.00000000       0.00000000       5.88080808       0.00000000       0.00000000      -0.00736877
2
Properties=species:S:1:pos:R:3:forces:R:3 energy=-11.217916008763549 pbc="F F F"
Cr       0.00000000       0.00000000       0.00000000       0.00000000       0.00000000       0.01083665
Cr       0.00000000       0.00000000       5.94040404       0.00000000       0.00000000      -0.01083665
2
Properties=species:S:1:pos:R:3:forces:R:3 energy=-11.217226054615065 pbc="F F F"
Cr       0.00000000       0.00000000       0.00000000       0.00000000       0.00000000       0.01175158
Cr       0.00000000       0.00000000       6.00000000       0.00000000       0.00000000      -0.01175158
