2
Properties=species:S:1:pos:R:3:forces:R:3 energy=3027.1496246387105 pbc="F F F"
Cr       0.00000000       0.00000000       0.00000000       0.00000000       0.00000000  -46383.07421875
Cr       0.00000000       0.00000000       0.18000000       0.00000000       0.00000000   46383.07421875
2
Properties=species:S:1:pos:R:3:forces:R:3 energy=1332.1805084277728 pbc="F F F"
Cr       0.00000000       0.00000000       0.00000000       0.00000000       0.00000000  -17053.98437500
Cr       0.00000000       0.00000000       0.23878788       0.00000000       0.00000000   17053.98437500
2
Properties=species:S:1:pos:R:3:forces:R:3 energy=660.7735870442219 pbc="F F F"
Cr       0.00000000       0.00000000       0.00000000       0.00000000       0.00000000   -7368.92626953
Cr       0.00000000       0.00000000       0.29757576       0.00000000       0.00000000    7368.92626953
2
Properties=species:S:1:pos:R:3:forces:R:3 energy=356.1091278188742 pbc="F F F"
Cr       0.00000000       0.00000000       0.00000000       0.00000000       0.00000000   -3533.79638672
Cr       0.00000000       0.00000000       0.35636364       0.00000000       0.00000000    3533.79638672
2
Properties=species:S:1:pos:R:3:forces:R:3 energy=205.10871583790512 pbc="F F F"
Cr       0.00000000       0.00000000       0.00000000       0.00000000       0.00000000   -1816.73828125
Cr       0.00000000       0.00000000       0.41515152       0.00000000       0.00000000    1816.73828125
2
Properties=species:S:1:pos:R:3:forces:R:3 energy=125.68022617185345 pbc="F F F"
Cr       0.00000000       0.00000000       0.00000000       0.00000000       0.00000000    -980.00775146
Cr       0.00000000       0.00000000       0.47393939       0.00000000       0.00000000     980.00775146
2
Properties=species:S:1:pos:R:3:forces:R:3 energy=82.13234412662138 pbc="F F F"
Cr       0.00000000       0.00000000       0.00000000       0.00000000       0.00000000    -546.88330078
Cr       0.00000000       0.00000000       0.53272727       0.00000000       0.00000000     546.88330078
2
Properties=species:S:1:pos:R:3:forces:R:3 energy=57.54616254301717 pbc="F F F"
Cr       0.00000000       0.00000000       0.00000000       0.00000000       0.00000000    -312.72885132
Cr       0.00000000       0.00000000       0.59151515       0.00000000       0.00000000     312.72885132
2
Properties=species:S:1:pos:R:3:forces:R:3 energy=43.35371497569832 pbc="F F F"
Cr       0.00000000       0.00000000       0.00000000       0.00000000       0.00000000    -182.60012817
Cr       0.00000000       0.00000000       0.65030303       0.00000000       0.00000000     182.60012817
2
Properties=species:S:1:pos:R:3:forces:R:3 energy=34.96563071613269 pbc="F F F"
Cr       0.00000000       0.00000000       0.00000000       0.00000000       0.00000000    -109.89401245
Cr       0.00000000       0.00000000       0.70909091       0.00000000       0.00000000     109.89401245
2
Properties=species:S:1:pos:R:3:forces:R:3 energy=29.777486260377994 pbc="F F F"
Cr       0.00000000       0.00000000       0.00000000       0.00000000       0.00000000     -70.98915100
Cr       0.00000000       0.00000000       0.76787879       0.00000000       0.00000000      70.98915100
2
Properties=species:S:1:pos:R:3:forces:R:3 energy=26.201364312231593 pbc="F F F"
Cr       0.00000000       0.00000000       0.00000000       0.00000000       0.00000000     -53.55798340
Cr       0.00000000       0.00000000       0.82666667       0.00000000       0.00000000      53.55798340
2
Properties=species:S:1:pos:R:3:forces:R:3 energy=23.203630727084164 pbc="F F F"
Cr       0.00000000       0.00000000       0.00000000       0.00000000       0.00000000     -50.29221344
Cr       0.00000000       0.00000000       0.88545455       0.00000000       0.00000000      50.29221344
2
Properties=species:S:1:pos:R:3:forces:R:3 energy=20.123778350304597 pbc="F F F"
Cr       0.00000000       0.00000000       0.00000000       0.00000000       0.00000000     -55.42499161
Cr       0.00000000       0.00000000       0.94424242       0.00000000       0.00000000      55.42499161
2
Properties=species:S:1:pos:R:3:forces:R:3 energy=16.625709515292893 pbc="F F F"
Cr       0.00000000       0.00000000       0.00000000       0.00000000       0.00000000     -63.72398376
Cr       0.00000000       0.00000000       1.00303030       0.00000000       0.00000000      63.72398376
2
Properties=species:S:1:pos:R:3:forces:R:3 energy=12.650989818023266 pbc="F F F"
Cr       0.00000000       0.00000000       0.00000000       0.00000000       0.00000000     -71.06317902
Cr       0.00000000       0.00000000       1.06181818       0.00000000       0.00000000      71.06317902
2
Properties=species:S:1:pos:R:3:forces:R:3 energy=8.348138860018127 pbc="F F F"
Cr       0.00000000       0.00000000       0.00000000       0.00000000       0.00000000     -74.45529175
Cr       0.00000000       0.00000000       1.12060606       0.00000000       0.00000000      74.45529175
2
Properties=species:S:1:pos:R:3:forces:R:3 energy=4.021018360689773 pbc="F F F"
Cr       0.00000000       0.00000000       0.00000000       0.00000000       0.00000000     -71.54147339
Cr       0.00000000       0.00000000       1.17939394       0.00000000       0.00000000      71.54147339
2
Properties=species:S:1:pos:R:3:forces:R:3 energy=0.07867271249816396 pbc="F F F"
Cr       0.00000000       0.00000000       0.00000000       0.00000000       0.00000000     -61.58124161
Cr       0.00000000       0.00000000       1.23818182       0.00000000       0.00000000      61.58124161
2
Properties=species:S:1:pos:R:3:forces:R:3 energy=-3.1591862599918628 pbc="F F F"
Cr       0.00000000       0.00000000       0.00000000       0.00000000       0.00000000     -48.58953094
Cr       0.00000000       0.00000000       1.29696970       0.00000000       0.00000000      48.58953094
2
Properties=species:S:1:pos:R:3:forces:R:3 energy=-5.678859318328605 pbc="F F F"
Cr       0.00000000       0.00000000       0.00000000       0.00000000       0.00000000     -37.69536591
Cr       0.00000000       0.00000000       1.35575758       0.00000000       0.00000000      37.69536591
2
Properties=species:S:1:pos:R:3:forces:R:3 energy=-7.6526461375185155 pbc="F F F"
Cr       0.00000000       0.00000000       0.00000000       0.00000000       0.00000000     -29.83068085
Cr       0.00000000       0.00000000       1.41454545       0.00000000       0.00000000      29.83068085
2
Properties=species:S:1:pos:R:3:forces:R:3 energy=-9.204826935871026 pbc="F F F"
Cr       0.00000000       0.00000000       0.00000000       0.00000000       0.00000000     -22.93214035
Cr       0.00000000       0.00000000       1.47333333       0.00000000       0.00000000      22.93214035
2
Properties=species:S:1:pos:R:3:forces:R:3 energy=-10.334154562469886 pbc="F F F"
Cr       0.00000000       0.00000000       0.00000000       0.00000000       0.00000000     -15.39237404
Cr       0.00000000       0.00000000       1.53212121       0.00000000       0.00000000      15.39237404
2
Properties=species:S:1:pos:R:3:forces:R:3 energy=-11.020891475887469 pbc="F F F"
Cr       0.00000000       0.00000000       0.00000000       0.00000000       0.00000000      -8.18946648
Cr       0.00000000       0.00000000       1.59090909       0.00000000       0.00000000       8.18946648
2
Properties=species:S:1:pos:R:3:forces:R:3 energy=-11.334187457062747 pbc="F F F"
Cr       0.00000000       0.00000000       0.00000000       0.00000000       0.00000000      -2.80444932
Cr       0.00000000       0.00000000       1.64969697       0.00000000       0.00000000       2.80444932
2
Properties=species:S:1:pos:R:3:forces:R:3 energy=-11.382532366349386 pbc="F F F"
Cr       0.00000000       0.00000000       0.00000000       0.00000000       0.00000000       0.94429880
Cr       0.00000000       0.00000000       1.70848485       0.00000000       0.00000000      -0.94429880
2
Properties=species:S:1:pos:R:3:forces:R:3 energy=-11.25095498200456 pbc="F F F"
Cr       0.00000000       0.00000000       0.00000000       0.00000000       0.00000000       3.25498152
Cr       0.00000000       0.00000000       1.76727273       0.00000000       0.00000000      -3.25498152
2
Properties=species:S:1:pos:R:3:forces:R:3 energy=-11.031303487212178 pbc="F F F"
Cr       0.00000000       0.00000000       0.00000000       0.00000000       0.00000000       3.99454451
Cr       0.00000000       0.00000000       1.82606061       0.00000000       0.00000000      -3.99454451
2
Properties=species:S:1:pos:R:3:forces:R:3 energy=-10.801166850162451 pbc="F F F"
Cr       0.00000000       0.00000000       0.00000000       0.00000000       0.00000000       3.70949626
Cr       0.00000000       0.00000000       1.88484848       0.00000000       0.00000000      -3.70949626
2
Properties=species:S:1:pos:R:3:forces:R:3 energy=-10.606571274731804 pbc="F F F"
Cr       0.00000000       0.00000000       0.00000000       0.00000000       0.00000000       2.83617258
Cr       0.00000000       0.00000000       1.94363636       0.00000000       0.00000000      -2.83617258
2
Properties=species:S:1:pos:R:3:forces:R:3 energy=-10.474166846288616 pbc="F F F"
Cr       0.00000000       0.00000000       0.00000000       0.00000000       0.00000000       1.63301551
Cr       0.00000000       0.00000000       2.00242424       0.00000000       0.00000000      -1.63301551
2
Properties=species:S:1:pos:R:3:forces:R:3 energy=-10.416339428450087 pbc="F F F"
Cr       0.00000000       0.00000000       0.00000000       0.00000000       0.00000000       0.33914626
Cr       0.00000000       0.00000000       2.06121212       0.00000000       0.00000000      -0.33914626
2
Properties=species:S:1:pos:R:3:forces:R:3 energy=-10.431615587552997 pbc="F F F"
Cr       0.00000000       0.00000000       0.00000000       0.00000000       0.00000000      -0.82043588
Cr       0.00000000       0.00000000       2.12000000       0.00000000       0.00000000       0.82043588
2
Properties=species:S:1:pos:R:3:forces:R:3 energy=-10.506970293470992 pbc="F F F"
Cr       0.00000000       0.00000000       0.00000000       0.00000000       0.00000000      -1.68575549
Cr       0.00000000       0.00000000       2.17878788       0.00000000       0.00000000       1.68575549
2
Properties=species:S:1:pos:R:3:forces:R:3 energy=-10.622781985008604 pbc="F F F"
Cr       0.00000000       0.00000000       0.00000000       0.00000000       0.00000000      -2.19524264
Cr       0.00000000       0.00000000       2.23757576       0.00000000       0.00000000       2.19524264
2
Properties=species:S:1:pos:R:3:forces:R:3 energy=-10.758724541660477 pbc="F F F"
Cr       0.00000000       0.00000000       0.00000000       0.00000000       0.00000000      -2.38258624
Cr       0.00000000       0.00000000       2.29636364       0.00000000       0.00000000       2.38258624
2
Properties=species:S:1:pos:R:3:forces:R:3 energy=-10.898407598917492 pbc="F F F"
Cr       0.00000000       0.00000000       0.00000000       0.00000000       0.00000000      -2.34027576
Cr       0.00000000       0.00000000       2.35515152       0.00000000       0.00000000       2.34027576
2
Properties=species:S:1:pos:R:3:forces:R:3 energy=-11.031467176060646 pbc="F F F"
Cr       0.00000000       0.00000000       0.00000000       0.00000000       0.00000000      -2.17393446
Cr       0.00000000       0.00000000       2.41393939       0.00000000       0.00000000       2.17393446
2
Properties=species:S:1:pos:R:3:forces:R:3 energy=-11.153326436708785 pbc="F F F"
Cr       0.00000000       0.00000000       0.00000000       0.00000000       0.00000000      -1.97158158
Cr       0.00000000       0.00000000       2.47272727       0.00000000       0.00000000       1.97158158
2
Properties=species:S:1:pos:R:3:forces:R:3 energy=-11.263717847276135 pbc="F F F"
Cr       0.00000000       0.00000000       0.00000000       0.00000000       0.00000000      -1.79042709
Cr       0.00000000       0.00000000       2.53151515       0.00000000       0.00000000       1.79042709
2
Properties=species:S:1:pos:R:3:forces:R:3 energy=-11.36462212937294 pbc="F F F"
Cr       0.00000000       0.00000000       0.00000000       0.00000000       0.00000000      -1.64767778
Cr       0.00000000       0.00000000       2.59030303       0.00000000       0.00000000       1.64767778
2
Properties=species:S:1:pos:R:3:forces:R:3 energy=-11.457605325475296 pbc="F F F"
Cr       0.00000000       0.00000000       0.00000000       0.00000000       0.00000000      -1.51218414
Cr       0.00000000       0.00000000       2.64909091       0.00000000       0.00000000       1.51218414
2
Properties=species:S:1:pos:R:3:forces:R:3 energy=-11.5415583303854 pbc="F F F"
Cr       0.00000000       0.00000000       0.00000000       0.00000000       0.00000000      -1.33499599
Cr       0.00000000       0.00000000       2.70787879       0.00000000       0.00000000       1.33499599
2
Properties=species:S:1:pos:R:3:forces:R:3 energy=-11.613727582575297 pbc="F F F"
Cr       0.00000000       0.00000000       0.00000000       0.00000000       0.00000000      -1.11588359
Cr       0.00000000       0.00000000       2.76666667       0.00000000       0.00000000       1.11588359
2
Properties=species:S:1:pos:R:3:forces:R:3 energy=-11.672494574217641 pbc="F F F"
Cr       0.00000000       0.00000000       0.00000000       0.00000000       0.00000000      -0.88213271
Cr       0.00000000       0.00000000       2.82545455       0.00000000       0.00000000       0.88213271
2
Properties=species:S:1:pos:R:3:forces:R:3 energy=-11.71730584021389 pbc="F F F"
Cr       0.00000000       0.00000000       0.00000000       0.00000000       0.00000000      -0.64130175
Cr       0.00000000       0.00000000       2.88424242       0.00000000       0.00000000       0.64130175
2
Properties=species:S:1:pos:R:3:forces:R:3 energy=-11.747849237645974 pbc="F F F"
Cr       0.00000000       0.00000000       0.00000000       0.00000000       0.00000000      -0.39853084
Cr       0.00000000       0.00000000       2.94303030       0.00000000       0.00000000       0.39853084
2
Properties=species:S:1:pos:R:3:forces:R:3 energy=-11.764439097749069 pbc="F F F"
Cr       0.00000000       0.00000000       0.00000000       0.00000000       0.00000000      -0.16996461
Cr       0.00000000       0.00000000       3.00181818       0.00000000       0.00000000       0.16996461
2
Properties=species:S:1:pos:R:3:forces:R:3 energy=-11.768504269776702 pbc="F F F"
Cr       0.00000000       0.00000000       0.00000000       0.00000000       0.00000000       0.02454460
Cr       0.00000000       0.00000000       3.06060606       0.00000000       0.00000000      -0.02454460
2
Properties=species:S:1:pos:R:3:forces:R:3 energy=-11.762499396999658 pbc="F F F"
Cr       0.00000000       0.00000000       0.00000000       0.00000000       0.00000000       0.17117269
Cr       0.00000000       0.00000000       3.11939394       0.00000000       0.00000000      -0.17117269
2
Properties=species:S:1:pos:R:3:forces:R:3 energy=-11.749377265906961 pbc="F F F"
Cr       0.00000000       0.00000000       0.00000000       0.00000000       0.00000000       0.26721361
Cr       0.00000000       0.00000000       3.17818182       0.00000000       0.00000000      -0.26721361
2
Properties=species:S:1:pos:R:3:forces:R:3 energy=-11.731917887816094 pbc="F F F"
Cr       0.00000000       0.00000000       0.00000000       0.00000000       0.00000000       0.32082334
Cr       0.00000000       0.00000000       3.23696970       0.00000000       0.00000000      -0.32082334
2
Properties=species:S:1:pos:R:3:forces:R:3 energy=-11.712200884606045 pbc="F F F"
Cr       0.00000000       0.00000000       0.00000000       0.00000000       0.00000000       0.34667954
Cr       0.00000000       0.00000000       3.29575758       0.00000000       0.00000000      -0.34667954
2
Properties=species:S:1:pos:R:3:forces:R:3 energy=-11.691398522064022 pbc="F F F"
Cr       0.00000000       0.00000000       0.00000000       0.00000000       0.00000000       0.35998997
Cr       0.00000000       0.00000000       3.35454545       0.00000000       0.00000000      -0.35998997
2
Properties=species:S:1:pos:R:3:forces:R:3 energy=-11.669903074428012 pbc="F F F"
Cr       0.00000000       0.00000000       0.00000000       0.00000000       0.00000000       0.37158293
Cr       0.00000000       0.00000000       3.41333333       0.00000000       0.00000000      -0.37158293
2
Properties=species:S:1:pos:R:3:forces:R:3 energy=-11.64765444786449 pbc="F F F"
Cr       0.00000000       0.00000000       0.00000000       0.00000000       0.00000000       0.38583171
Cr       0.00000000       0.00000000       3.47212121       0.00000000       0.00000000      -0.38583171
2
Properties=species:S:1:pos:R:3:forces:R:3 energy=-11.624508165706029 pbc="F F F"
Cr       0.00000000       0.00000000       0.00000000       0.00000000       0.00000000       0.40157533
Cr       0.00000000       0.00000000       3.53090909       0.00000000       0.00000000      -0.40157533
2
Properties=species:S:1:pos:R:3:forces:R:3 energy=-11.60048748059562 pbc="F F F"
Cr       0.00000000       0.00000000       0.00000000       0.00000000       0.00000000       0.41482985
Cr       0.00000000       0.00000000       3.58969697       0.00000000       0.00000000      -0.41482985
2
Properties=species:S:1:pos:R:3:forces:R:3 energy=-11.57586159478755 pbc="F F F"
Cr       0.00000000       0.00000000       0.00000000       0.00000000       0.00000000       0.42164466
Cr       0.00000000       0.00000000       3.64848485       0.00000000       0.00000000      -0.42164466
2
Properties=species:S:1:pos:R:3:forces:R:3 energy=-11.551080911664197 pbc="F F F"
Cr       0.00000000       0.00000000       0.00000000       0.00000000       0.00000000       0.41993913
Cr       0.00000000       0.00000000       3.70727273       0.00000000       0.00000000      -0.41993913
2
Properties=species:S:1:pos:R:3:forces:R:3 energy=-11.526650254072742 pbc="F F F"
Cr       0.00000000       0.00000000       0.00000000       0.00000000       0.00000000       0.40995291
Cr       0.00000000       0.00000000       3.76606061       0.00000000       0.00000000      -0.40995291
2
Properties=species:S:1:pos:R:3:forces:R:3 energy=-11.503004969027417 pbc="F F F"
Cr       0.00000000       0.00000000       0.00000000       0.00000000       0.00000000       0.39364851
Cr       0.00000000       0.00000000       3.82484848       0.00000000       0.00000000      -0.39364851
2
Properties=species:S:1:pos:R:3:forces:R:3 energy=-11.480438429454523 pbc="F F F"
Cr       0.00000000       0.00000000       0.00000000       0.00000000       0.00000000       0.37366253
Cr       0.00000000       0.00000000       3.88363636       0.00000000       0.00000000      -0.37366253
2
Properties=species:S:1:pos:R:3:forces:R:3 energy=-11.459096362831685 pbc="F F F"
Cr       0.00000000       0.00000000       0.00000000       0.00000000       0.00000000       0.35236347
Cr       0.00000000       0.00000000       3.94242424       0.00000000       0.00000000      -0.35236347
2
Properties=species:S:1:pos:R:3:forces:R:3 energy=-11.439004406372725 pbc="F F F"
Cr       0.00000000       0.00000000       0.00000000       0.00000000       0.00000000       0.33128715
Cr       0.00000000       0.00000000       4.00121212       0.00000000       0.00000000      -0.33128715
2
Properties=species:S:1:pos:R:3:forces:R:3 energy=-11.420128106146208 pbc="F F F"
Cr       0.00000000       0.00000000       0.00000000       0.00000000       0.00000000       0.31102845
Cr       0.00000000       0.00000000       4.06000000       0.00000000       0.00000000      -0.31102845
2
Properties=species:S:1:pos:R:3:forces:R:3 energy=-11.402420575448698 pbc="F F F"
Cr       0.00000000       0.00000000       0.00000000       0.00000000       0.00000000       0.29146379
Cr       0.00000000       0.00000000       4.11878788       0.00000000       0.00000000      -0.29146379
2
Properties=species:S:1:pos:R:3:forces:R:3 energy=-11.385854723326535 pbc="F F F"
Cr       0.00000000       0.00000000       0.00000000       0.00000000       0.00000000       0.27211672
Cr       0.00000000       0.00000000       4.17757576       0.00000000       0.00000000      -0.27211672
2
Properties=species:S:1:pos:R:3:forces:R:3 energy=-11.37043160956149 pbc="F F F"
Cr       0.00000000       0.00000000       0.00000000       0.00000000       0.00000000       0.25252178
Cr       0.00000000       0.00000000       4.23636364       0.00000000       0.00000000      -0.25252178
2
Properties=species:S:1:pos:R:3:forces:R:3 energy=-11.35617369925846 pbc="F F F"
Cr       0.00000000       0.00000000       0.00000000       0.00000000       0.00000000       0.23247112
Cr       0.00000000       0.00000000       4.29515152       0.00000000       0.00000000      -0.23247112
2
Properties=species:S:1:pos:R:3:forces:R:3 energy=-11.343104651951146 pbc="F F F"
Cr       0.00000000       0.00000000       0.00000000       0.00000000       0.00000000       0.21211150
Cr       0.00000000       0.00000000       4.35393939       0.00000000       0.00000000      -0.21211150
2
Properties=species:S:1:pos:R:3:forces:R:3 energy=-11.331231787996984 pbc="F F F"
Cr       0.00000000       0.00000000       0.00000000       0.00000000       0.00000000       0.19189972
Cr       0.00000000       0.00000000       4.41272727       0.00000000       0.00000000      -0.19189972
2
Properties=species:S:1:pos:R:3:forces:R:3 energy=-11.32052693906308 pbc="F F F"
Cr       0.00000000       0.00000000       0.00000000       0.00000000       0.00000000       0.17248170
Cr       0.00000000       0.00000000       4.47151515       0.00000000       0.00000000      -0.17248170
2
Properties=species:S:1:pos:R:3:forces:R:3 energy=-11.310922484541315 pbc="F F F"
Cr       0.00000000       0.00000000       0.00000000       0.00000000       0.00000000       0.15453812
Cr       0.00000000       0.00000000       4.53030303       0.00000000       0.00000000      -0.15453812
2
Properties=species:S:1:pos:R:3:forces:R:3 energy=-11.302316817000643 pbc="F F F"
Cr       0.00000000       0.00000000       0.00000000       0.00000000       0.00000000       0.13864368
Cr       0.00000000       0.00000000       4.58909091       0.00000000       0.00000000      -0.13864368
2
Properties=species:S:1:pos:R:3:forces:R:3 energy=-11.294574253488065 pbc="F F F"
Cr       0.00000000       0.00000000       0.00000000       0.00000000       0.00000000       0.12518446
Cr       0.00000000       0.00000000       4.64787879       0.00000000       0.00000000      -0.12518446
2
Properties=species:S:1:pos:R:3:forces:R:3 energy=-11.287546878171078 pbc="F F F"
Cr       0.00000000       0.00000000       0.00000000       0.00000000       0.00000000       0.11432047
Cr       0.00000000       0.00000000       4.70666667       0.00000000       0.00000000      -0.11432047
2
Properties=species:S:1:pos:R:3:forces:R:3 energy=-11.281083005029267 pbc="F F F"
Cr       0.00000000       0.00000000       0.00000000       0.00000000       0.00000000       0.10600181
Cr       0.00000000       0.00000000       4.76545455       0.00000000       0.00000000      -0.10600181
2
Properties=species:S:1:pos:R:3:forces:R:3 energy=-11.275037665103975 pbc="F F F"
Cr       0.00000000       0.00000000       0.00000000       0.00000000       0.00000000       0.10000595
Cr       0.00000000       0.00000000       4.82424242       0.00000000       0.00000000      -0.10000595
2
Properties=species:S:1:pos:R:3:forces:R:3 energy=-11.269285938931793 pbc="F F F"
Cr       0.00000000       0.00000000       0.00000000       0.00000000       0.00000000       0.09598577
Cr       0.00000000       0.00000000       4.88303030       0.00000000       0.00000000      -0.09598577
2
Properties=species:S:1:pos:R:3:forces:R:3 energy=-11.263721952185085 pbc="F F F"
Cr       0.00000000       0.00000000       0.00000000       0.00000000       0.00000000       0.09350931
Cr       0.00000000       0.00000000       4.94181818       0.00000000       0.00000000      -0.09350931
2
Properties=species:S:1:pos:R:3:forces:R:3 energy=-11.258270421134108 pbc="F F F"
Cr       0.00000000       0.00000000       0.00000000       0.00000000       0.00000000       0.09206475
Cr       0.00000000       0.00000000       5.00060606       0.00000000       0.00000000      -0.09206475
2
Properties=species:S:1:pos:R:3:forces:R:3 energy=-11.25288957702639 pbc="F F F"
Cr       0.00000000       0.00000000       0.00000000       0.00000000       0.00000000       0.09100769
Cr       0.00000000       0.00000000       5.05939394       0.00000000       0.00000000      -0.09100769
2
Properties=species:S:1:pos:R:3:forces:R:3 energy=-11.247579733316476 pbc="F F F"
Cr       0.00000000       0.00000000       0.00000000       0.00000000       0.00000000       0.08945209
Cr       0.00000000       0.00000000       5.11818182       0.00000000       0.00000000      -0.08945209
2
Properties=species:S:1:pos:R:3:forces:R:3 energy=-11.242405346888082 pbc="F F F"
Cr       0.00000000       0.00000000       0.00000000       0.00000000       0.00000000       0.08620708
Cr       0.00000000       0.00000000       5.17696970       0.00000000       0.00000000      -0.08620708
2
Properties=species:S:1:pos:R:3:forces:R:3 energy=-11.23750176663423 pbc="F F F"
Cr       0.00000000       0.00000000       0.00000000       0.00000000       0.00000000       0.08007137
Cr       0.00000000       0.00000000       5.23575758       0.00000000       0.00000000      -0.08007137
2
Properties=species:S:1:pos:R:3:forces:R:3 energy=-11.233056251837754 pbc="F F F"
Cr       0.00000000       0.00000000       0.00000000       0.00000000       0.00000000       0.07063765
Cr       0.00000000       0.00000000       5.29454545       0.00000000       0.00000000      -0.07063765
2
Properties=species:S:1:pos:R:3:forces:R:3 energy=-11.229241289412979 pbc="F F F"
Cr       0.00000000       0.00000000       0.00000000       0.00000000       0.00000000       0.05895187
Cr       0.00000000       0.00000000       5.35333333       0.00000000       0.00000000      -0.05895187
2
Properties=species:S:1:pos:R:3:forces:R:3 energy=-11.226129759657152 pbc="F F F"
Cr       0.00000000       0.00000000       0.00000000       0.00000000       0.00000000       0.04703452
Cr       0.00000000       0.00000000       5.41212121       0.00000000       0.00000000      -0.04703452
2
Properties=species:S:1:pos:R:3:forces:R:3 energy=-11.223682662029395 pbc="F F F"
Cr       0.00000000       0.00000000       0.00000000       0.00000000       0.00000000       0.03648531
Cr       0.00000000       0.00000000       5.47090909       0.00000000       0.00000000      -0.03648531
2
Properties=species:S:1:pos:R:3:forces:R:3 energy=-11.221808280972198 pbc="F F F"
Cr       0.00000000       0.00000000       0.00000000       0.00000000       0.00000000       0.02749570
Cr       0.00000000       0.00000000       5.52969697       0.00000000       0.00000000      -0.02749570
2
Properties=species:S:1:pos:R:3:forces:R:3 energy=-11.220437578451461 pbc="F F F"
Cr       0.00000000       0.00000000       0.00000000       0.00000000       0.00000000       0.01918134
Cr       0.00000000       0.00000000       5.58848485       0.00000000       0.00000000      -0.01918134
2
Properties=species:S:1:pos:R:3:forces:R:3 energy=-11.219549094026869 pbc="F F F"
Cr       0.00000000       0.00000000       0.00000000       0.00000000       0.00000000       0.01114657
Cr       0.00000000       0.00000000       5.64727273       0.00000000       0.00000000      -0.01114657
2
Properties=species:S:1:pos:R:3:forces:R:3 energy=-11.219095488170854 pbc="F F F"
Cr       0.00000000       0.00000000       0.00000000       0.00000000       0.00000000       0.00472181
Cr       0.00000000       0.00000000       5.70606061       0.00000000       0.00000000      -0.00472181
2
Properties=species:S:1:pos:R:3:forces:R:3 energy=-11.218921597553386 pbc="F F F"
Cr       0.00000000       0.00000000       0.00000000       0.00000000       0.00000000       0.00199710
Cr       0.00000000       0.00000000       5.76484848       0.00000000       0.00000000      -0.00199710
2
Properties=species:S:1:pos:R:3:forces:R:3 energy=-11.21877501257456 pbc="F F F"
Cr       0.00000000       0.00000000       0.00000000       0.00000000       0.00000000       0.00355632
Cr       0.00000000       0.00000000       5.82363636       0.00000000       0.00000000      -0.00355632
2
Properties=species:S:1:pos:R:3:forces:R:3 energy=-11.218453825607638 pbc="F F F"
Cr       0.00000000       0.00000000       0.00000000       0.00000000       0.00000000       0.00747744
Cr       0.00000000       0.00000000       5.88242424       0.00000000       0.00000000      -0.00747744
2
Properties=species:S:1:pos:R:3:forces:R:3 energy=-11.217906862628901 pbc="F F F"
Cr       0.00000000       0.00000000       0.00000000       0.00000000       0.00000000       0.01087392
Cr       0.00000000       0.00000000       5.94121212       0.00000000       0.00000000      -0.01087392
2
Properties=species:S:1:pos:R:3:forces:R:3 energy=-11.217226054615065 pbc="F F F"
Cr       0.00000000       0.00000000       0.00000000       0.00000000       0.00000000       0.01175158
Cr       0.00000000       0.00000000       6.00000000       0.00000000       0.00000000      -0.01175158
