2
Properties=species:S:1:pos:R:3:forces:R:3 energy=3991.047650464839 pbc="F F F"
Cu       0.00000000       0.00000000       0.00000000       0.00000000       0.00000000  -62458.96093750
Cu       0.00000000       0.00000000       0.18000000       0.00000000       0.00000000   62458.96093750
2
Properties=species:S:1:pos:R:3:forces:R:3 energy=1725.0165225351514 pbc="F F F"
Cu       0.00000000       0.00000000       0.00000000       0.00000000       0.00000000  -22586.10937500
Cu       0.00000000       0.00000000       0.23878788       0.00000000       0.00000000   22586.10937500
2
Properties=species:S:1:pos:R:3:forces:R:3 energy=841.5889712656201 pbc="F F F"
Cu       0.00000000       0.00000000       0.00000000       0.00000000       0.00000000   -9612.45996094
Cu       0.00000000       0.00000000       0.29757576       0.00000000       0.00000000    9612.45996094
2
Properties=species:S:1:pos:R:3:forces:R:3 energy=446.89341462499516 pbc="F F F"
Cu       0.00000000       0.00000000       0.00000000       0.00000000       0.00000000   -4536.86572266
Cu       0.00000000       0.00000000       0.35636364       0.00000000       0.00000000    4536.86572266
2
Properties=species:S:1:pos:R:3:forces:R:3 energy=254.48916353269797 pbc="F F F"
Cu       0.00000000       0.00000000       0.00000000       0.00000000       0.00000000   -2292.47949219
Cu       0.00000000       0.00000000       0.41515152       0.00000000       0.00000000    2292.47949219
2
Properties=species:S:1:pos:R:3:forces:R:3 energy=155.1016971147052 pbc="F F F"
Cu       0.00000000       0.00000000       0.00000000       0.00000000       0.00000000   -1212.97814941
Cu       0.00000000       0.00000000       0.47393939       0.00000000       0.00000000    1212.97814941
2
Properties=species:S:1:pos:R:3:forces:R:3 energy=101.74940984756729 pbc="F F F"
Cu       0.00000000       0.00000000       0.00000000       0.00000000       0.00000000    -660.89703369
Cu       0.00000000       0.00000000       0.53272727       0.00000000       0.00000000     660.89703369
2
Properties=species:S:1:pos:R:3:forces:R:3 energy=72.46158334749522 pbc="F F F"
Cu       0.00000000       0.00000000       0.00000000       0.00000000       0.00000000    -365.07546997
Cu       0.00000000       0.00000000       0.59151515       0.00000000       0.00000000     365.07546997
2
Properties=species:S:1:pos:R:3:forces:R:3 energy=56.28561143232403 pbc="F F F"
Cu       0.00000000       0.00000000       0.00000000       0.00000000       0.00000000    -200.79119873
Cu       0.00000000       0.00000000       0.65030303       0.00000000       0.00000000     200.79119873
2
Properties=species:S:1:pos:R:3:forces:R:3 energy=47.493695643307476 pbc="F F F"
Cu       0.00000000       0.00000000       0.00000000       0.00000000       0.00000000    -106.91176605
Cu       0.00000000       0.00000000       0.70909091       0.00000000       0.00000000     106.91176605
2
Properties=species:S:1:pos:R:3:forces:R:3 energy=42.92214734295234 pbc="F F F"
Cu       0.00000000       0.00000000       0.00000000       0.00000000       0.00000000     -54.01905060
Cu       0.00000000       0.00000000       0.76787879       0.00000000       0.00000000      54.01905060
2
Properties=species:S:1:pos:R:3:forces:R:3 energy=40.6068933659454 pbc="F F F"
Cu       0.00000000       0.00000000       0.00000000       0.00000000       0.00000000     -28.63784218
Cu       0.00000000       0.00000000       0.82666667       0.00000000       0.00000000      28.63784218
2
Properties=species:S:1:pos:R:3:forces:R:3 energy=39.16274850226565 pbc="F F F"
Cu       0.00000000       0.00000000       0.00000000       0.00000000       0.00000000     -23.26489258
Cu       0.00000000       0.00000000       0.88545455       0.00000000       0.00000000      23.26489258
2
Properties=species:S:1:pos:R:3:forces:R:3 energy=37.615835833634144 pbc="F F F"
Cu       0.00000000       0.00000000       0.00000000       0.00000000       0.00000000     -30.93949890
Cu       0.00000000       0.00000000       0.94424242       0.00000000       0.00000000      30.93949890
2
Properties=species:S:1:pos:R:3:forces:R:3 energy=35.404982906377526 pbc="F F F"
Cu       0.00000000       0.00000000       0.00000000       0.00000000       0.00000000     -44.77807236
Cu       0.00000000       0.00000000       1.00303030       0.00000000       0.00000000      44.77807236
2
Properties=species:S:1:pos:R:3:forces:R:3 energy=32.34484508780733 pbc="F F F"
Cu       0.00000000       0.00000000       0.00000000       0.00000000       0.00000000     -58.98612213
Cu       0.00000000       0.00000000       1.06181818       0.00000000       0.00000000      58.98612213
2
Properties=species:S:1:pos:R:3:forces:R:3 energy=28.545846470356746 pbc="F F F"
Cu       0.00000000       0.00000000       0.00000000       0.00000000       0.00000000     -69.39437866
Cu       0.00000000       0.00000000       1.12060606       0.00000000       0.00000000      69.39437866
2
Properties=species:S:1:pos:R:3:forces:R:3 energy=24.292569268115038 pbc="F F F"
Cu       0.00000000       0.00000000       0.00000000       0.00000000       0.00000000     -74.43441772
Cu       0.00000000       0.00000000       1.17939394       0.00000000       0.00000000      74.43441772
2
Properties=species:S:1:pos:R:3:forces:R:3 energy=19.89577788569319 pbc="F F F"
Cu       0.00000000       0.00000000       0.00000000       0.00000000       0.00000000     -74.19863129
Cu       0.00000000       0.00000000       1.23818182       0.00000000       0.00000000      74.19863129
2
Properties=species:S:1:pos:R:3:forces:R:3 energy=15.693001603727762 pbc="F F F"
Cu       0.00000000       0.00000000       0.00000000       0.00000000       0.00000000     -67.72015381
Cu       0.00000000       0.00000000       1.29696970       0.00000000       0.00000000      67.72015381
2
Properties=species:S:1:pos:R:3:forces:R:3 energy=12.030198298638481 pbc="F F F"
Cu       0.00000000       0.00000000       0.00000000       0.00000000       0.00000000     -56.44433212
Cu       0.00000000       0.00000000       1.35575758       0.00000000       0.00000000      56.44433212
2
Properties=species:S:1:pos:R:3:forces:R:3 energy=9.059643195258744 pbc="F F F"
Cu       0.00000000       0.00000000       0.00000000       0.00000000       0.00000000     -44.93018723
Cu       0.00000000       0.00000000       1.41454545       0.00000000       0.00000000      44.93018723
2
Properties=species:S:1:pos:R:3:forces:R:3 energy=6.692430157497035 pbc="F F F"
Cu       0.00000000       0.00000000       0.00000000       0.00000000       0.00000000     -36.10983276
Cu       0.00000000       0.00000000       1.47333333       0.00000000       0.00000000      36.10983276
2
Properties=species:S:1:pos:R:3:forces:R:3 energy=4.762636256831377 pbc="F F F"
Cu       0.00000000       0.00000000       0.00000000       0.00000000       0.00000000     -29.88348961
Cu       0.00000000       0.00000000       1.53212121       0.00000000       0.00000000      29.88348961
2
Properties=species:S:1:pos:R:3:forces:R:3 energy=3.149997881076241 pbc="F F F"
Cu       0.00000000       0.00000000       0.00000000       0.00000000       0.00000000     -25.14550972
Cu       0.00000000       0.00000000       1.59090909       0.00000000       0.00000000      25.14550972
2
Properties=species:S:1:pos:R:3:forces:R:3 energy=1.7927228624828382 pbc="F F F"
Cu       0.00000000       0.00000000       0.00000000       0.00000000       0.00000000     -21.10814667
Cu       0.00000000       0.00000000       1.64969697       0.00000000       0.00000000      21.10814667
2
Properties=species:S:1:pos:R:3:forces:R:3 energy=0.6610628764719005 pbc="F F F"
Cu       0.00000000       0.00000000       0.00000000       0.00000000       0.00000000     -17.44314575
Cu       0.00000000       0.00000000       1.70848485       0.00000000       0.00000000      17.44314575
2
Properties=species:S:1:pos:R:3:forces:R:3 energy=-0.2641506747067197 pbc="F F F"
Cu       0.00000000       0.00000000       0.00000000       0.00000000       0.00000000     -14.08736897
Cu       0.00000000       0.00000000       1.76727273       0.00000000       0.00000000      14.08736897
2
Properties=species:S:1:pos:R:3:forces:R:3 energy=-1.002363105242439 pbc="F F F"
Cu       0.00000000       0.00000000       0.00000000       0.00000000       0.00000000     -11.09365082
Cu       0.00000000       0.00000000       1.82606061       0.00000000       0.00000000      11.09365082
2
Properties=species:S:1:pos:R:3:forces:R:3 energy=-1.576836012325059 pbc="F F F"
Cu       0.00000000       0.00000000       0.00000000       0.00000000       0.00000000      -8.52329731
Cu       0.00000000       0.00000000       1.88484848       0.00000000       0.00000000       8.52329731
2
Properties=species:S:1:pos:R:3:forces:R:3 energy=-2.012957042474269 pbc="F F F"
Cu       0.00000000       0.00000000       0.00000000       0.00000000       0.00000000      -6.38284159
Cu       0.00000000       0.00000000       1.94363636       0.00000000       0.00000000       6.38284159
2
Properties=species:S:1:pos:R:3:forces:R:3 energy=-2.3349095718797934 pbc="F F F"
Cu       0.00000000       0.00000000       0.00000000       0.00000000       0.00000000      -4.63017941
Cu       0.00000000       0.00000000       2.00242424       0.00000000       0.00000000       4.63017941
2
Properties=species:S:1:pos:R:3:forces:R:3 energy=-2.5638644077689654 pbc="F F F"
Cu       0.00000000       0.00000000       0.00000000       0.00000000       0.00000000      -3.21006346
Cu       0.00000000       0.00000000       2.06121212       0.00000000       0.00000000       3.21006346
2
Properties=species:S:1:pos:R:3:forces:R:3 energy=-2.7178881643164297 pbc="F F F"
Cu       0.00000000       0.00000000       0.00000000       0.00000000       0.00000000      -2.07354093
Cu       0.00000000       0.00000000       2.12000000       0.00000000       0.00000000       2.07354093
2
Properties=species:S:1:pos:R:3:forces:R:3 energy=-2.812399174660379 pbc="F F F"
Cu       0.00000000       0.00000000       0.00000000       0.00000000       0.00000000      -1.17886031
Cu       0.00000000       0.00000000       2.17878788       0.00000000       0.00000000       1.17886031
2
Properties=species:S:1:pos:R:3:forces:R:3 energy=-2.8604861556847254 pbc="F F F"
Cu       0.00000000       0.00000000       0.00000000       0.00000000       0.00000000      -0.48806459
Cu       0.00000000       0.00000000       2.23757576       0.00000000       0.00000000       0.48806459
2
Properties=species:S:1:pos:R:3:forces:R:3 energy=-2.873090825003837 pbc="F F F"
Cu       0.00000000       0.00000000       0.00000000       0.00000000       0.00000000       0.03377808
Cu       0.00000000       0.00000000       2.29636364       0.00000000       0.00000000      -0.03377808
2
Properties=species:S:1:pos:R:3:forces:R:3 energy=-2.859213749280103 pbc="F F F"
Cu       0.00000000       0.00000000       0.00000000       0.00000000       0.00000000       0.41775829
Cu       0.00000000       0.00000000       2.35515152       0.00000000       0.00000000      -0.41775829
2
Properties=species:S:1:pos:R:3:forces:R:3 energy=-2.826141781983343 pbc="F F F"
Cu       0.00000000       0.00000000       0.00000000       0.00000000       0.00000000       0.69092882
Cu       0.00000000       0.00000000       2.41393939       0.00000000       0.00000000      -0.69092882
2
Properties=species:S:1:pos:R:3:forces:R:3 energy=-2.779688022399555 pbc="F F F"
Cu       0.00000000       0.00000000       0.00000000       0.00000000       0.00000000       0.87666535
Cu       0.00000000       0.00000000       2.47272727       0.00000000       0.00000000      -0.87666535
2
Properties=species:S:1:pos:R:3:forces:R:3 energy=-2.7243928375059765 pbc="F F F"
Cu       0.00000000       0.00000000       0.00000000       0.00000000       0.00000000       0.99466169
Cu       0.00000000       0.00000000       2.53151515       0.00000000       0.00000000      -0.99466169
2
Properties=species:S:1:pos:R:3:forces:R:3 energy=-2.6637415493046004 pbc="F F F"
Cu       0.00000000       0.00000000       0.00000000       0.00000000       0.00000000       1.06156015
Cu       0.00000000       0.00000000       2.59030303       0.00000000       0.00000000      -1.06156015
2
Properties=species:S:1:pos:R:3:forces:R:3 energy=-2.600239458479023 pbc="F F F"
Cu       0.00000000       0.00000000       0.00000000       0.00000000       0.00000000       1.09496772
Cu       0.00000000       0.00000000       2.64909091       0.00000000       0.00000000      -1.09496772
2
Properties=species:S:1:pos:R:3:forces:R:3 energy=-2.535233630067733 pbc="F F F"
Cu       0.00000000       0.00000000       0.00000000       0.00000000       0.00000000       1.11611009
Cu       0.00000000       0.00000000       2.70787879       0.00000000       0.00000000      -1.11611009
2
Properties=species:S:1:pos:R:3:forces:R:3 energy=-2.469007825466701 pbc="F F F"
Cu       0.00000000       0.00000000       0.00000000       0.00000000       0.00000000       1.13665104
Cu       0.00000000       0.00000000       2.76666667       0.00000000       0.00000000      -1.13665104
2
Properties=species:S:1:pos:R:3:forces:R:3 energy=-2.4017491374715902 pbc="F F F"
Cu       0.00000000       0.00000000       0.00000000       0.00000000       0.00000000       1.14907897
Cu       0.00000000       0.00000000       2.82545455       0.00000000       0.00000000      -1.14907897
2
Properties=species:S:1:pos:R:3:forces:R:3 energy=-2.3342695664886275 pbc="F F F"
Cu       0.00000000       0.00000000       0.00000000       0.00000000       0.00000000       1.14320588
Cu       0.00000000       0.00000000       2.88424242       0.00000000       0.00000000      -1.14320588
2
Properties=species:S:1:pos:R:3:forces:R:3 energy=-2.2677220314291544 pbc="F F F"
Cu       0.00000000       0.00000000       0.00000000       0.00000000       0.00000000       1.11782610
Cu       0.00000000       0.00000000       2.94303030       0.00000000       0.00000000      -1.11782610
2
Properties=species:S:1:pos:R:3:forces:R:3 energy=-2.2031261802499564 pbc="F F F"
Cu       0.00000000       0.00000000       0.00000000       0.00000000       0.00000000       1.07789063
Cu       0.00000000       0.00000000       3.00181818       0.00000000       0.00000000      -1.07789063
2
Properties=species:S:1:pos:R:3:forces:R:3 energy=-2.141142461211347 pbc="F F F"
Cu       0.00000000       0.00000000       0.00000000       0.00000000       0.00000000       1.03006876
Cu       0.00000000       0.00000000       3.06060606       0.00000000       0.00000000      -1.03006876
2
Properties=species:S:1:pos:R:3:forces:R:3 energy=-2.0820515305327123 pbc="F F F"
Cu       0.00000000       0.00000000       0.00000000       0.00000000       0.00000000       0.98035407
Cu       0.00000000       0.00000000       3.11939394       0.00000000       0.00000000      -0.98035407
2
Properties=species:S:1:pos:R:3:forces:R:3 energy=-2.0258312262877936 pbc="F F F"
Cu       0.00000000       0.00000000       0.00000000       0.00000000       0.00000000       0.93287343
Cu       0.00000000       0.00000000       3.17818182       0.00000000       0.00000000      -0.93287343
2
Properties=species:S:1:pos:R:3:forces:R:3 energy=-1.9722862434283703 pbc="F F F"
Cu       0.00000000       0.00000000       0.00000000       0.00000000       0.00000000       0.88948375
Cu       0.00000000       0.00000000       3.23696970       0.00000000       0.00000000      -0.88948375
2
Properties=species:S:1:pos:R:3:forces:R:3 energy=-1.92117111435149 pbc="F F F"
Cu       0.00000000       0.00000000       0.00000000       0.00000000       0.00000000       0.85005140
Cu       0.00000000       0.00000000       3.29575758       0.00000000       0.00000000      -0.85005140
2
Properties=species:S:1:pos:R:3:forces:R:3 energy=-1.8722905636674558 pbc="F F F"
Cu       0.00000000       0.00000000       0.00000000       0.00000000       0.00000000       0.81318241
Cu       0.00000000       0.00000000       3.35454545       0.00000000       0.00000000      -0.81318241
2
Properties=species:S:1:pos:R:3:forces:R:3 energy=-1.825545825289168 pbc="F F F"
Cu       0.00000000       0.00000000       0.00000000       0.00000000       0.00000000       0.77707726
Cu       0.00000000       0.00000000       3.41333333       0.00000000       0.00000000      -0.77707726
2
Properties=species:S:1:pos:R:3:forces:R:3 energy=-1.7809400428804838 pbc="F F F"
Cu       0.00000000       0.00000000       0.00000000       0.00000000       0.00000000       0.74021775
Cu       0.00000000       0.00000000       3.47212121       0.00000000       0.00000000      -0.74021775
2
Properties=species:S:1:pos:R:3:forces:R:3 energy=-1.7385468324580517 pbc="F F F"
Cu       0.00000000       0.00000000       0.00000000       0.00000000       0.00000000       0.70174468
Cu       0.00000000       0.00000000       3.53090909       0.00000000       0.00000000      -0.70174468
2
Properties=species:S:1:pos:R:3:forces:R:3 energy=-1.698466637792245 pbc="F F F"
Cu       0.00000000       0.00000000       0.00000000       0.00000000       0.00000000       0.66151750
Cu       0.00000000       0.00000000       3.58969697       0.00000000       0.00000000      -0.66151750
2
Properties=species:S:1:pos:R:3:forces:R:3 energy=-1.660793996873854 pbc="F F F"
Cu       0.00000000       0.00000000       0.00000000       0.00000000       0.00000000       0.61997753
Cu       0.00000000       0.00000000       3.64848485       0.00000000       0.00000000      -0.61997753
2
Properties=species:S:1:pos:R:3:forces:R:3 energy=-1.625583143450465 pbc="F F F"
Cu       0.00000000       0.00000000       0.00000000       0.00000000       0.00000000       0.57790411
Cu       0.00000000       0.00000000       3.70727273       0.00000000       0.00000000      -0.57790411
2
Properties=species:S:1:pos:R:3:forces:R:3 energy=-1.5928389609596934 pbc="F F F"
Cu       0.00000000       0.00000000       0.00000000       0.00000000       0.00000000       0.53619623
Cu       0.00000000       0.00000000       3.76606061       0.00000000       0.00000000      -0.53619623
2
Properties=species:S:1:pos:R:3:forces:R:3 energy=-1.56251532227068 pbc="F F F"
Cu       0.00000000       0.00000000       0.00000000       0.00000000       0.00000000       0.49571496
Cu       0.00000000       0.00000000       3.82484848       0.00000000       0.00000000      -0.49571496
2
Properties=species:S:1:pos:R:3:forces:R:3 energy=-1.5345165570414787 pbc="F F F"
Cu       0.00000000       0.00000000       0.00000000       0.00000000       0.00000000       0.45718354
Cu       0.00000000       0.00000000       3.88363636       0.00000000       0.00000000      -0.45718354
2
Properties=species:S:1:pos:R:3:forces:R:3 energy=-1.5087122906917596 pbc="F F F"
Cu       0.00000000       0.00000000       0.00000000       0.00000000       0.00000000       0.42115736
Cu       0.00000000       0.00000000       3.94242424       0.00000000       0.00000000      -0.42115736
2
Properties=species:S:1:pos:R:3:forces:R:3 energy=-1.4849427022828376 pbc="F F F"
Cu       0.00000000       0.00000000       0.00000000       0.00000000       0.00000000       0.38800460
Cu       0.00000000       0.00000000       4.00121212       0.00000000       0.00000000      -0.38800460
2
Properties=species:S:1:pos:R:3:forces:R:3 energy=-1.463032364298597 pbc="F F F"
Cu       0.00000000       0.00000000       0.00000000       0.00000000       0.00000000       0.35791239
Cu       0.00000000       0.00000000       4.06000000       0.00000000       0.00000000      -0.35791239
2
Properties=species:S:1:pos:R:3:forces:R:3 energy=-1.4428004871407965 pbc="F F F"
Cu       0.00000000       0.00000000       0.00000000       0.00000000       0.00000000       0.33090129
Cu       0.00000000       0.00000000       4.11878788       0.00000000       0.00000000      -0.33090129
2
Properties=species:S:1:pos:R:3:forces:R:3 energy=-1.424068329111954 pbc="F F F"
Cu       0.00000000       0.00000000       0.00000000       0.00000000       0.00000000       0.30684426
Cu       0.00000000       0.00000000       4.17757576       0.00000000       0.00000000      -0.30684426
2
Properties=species:S:1:pos:R:3:forces:R:3 energy=-1.4066694429105224 pbc="F F F"
Cu       0.00000000       0.00000000       0.00000000       0.00000000       0.00000000       0.28549722
Cu       0.00000000       0.00000000       4.23636364       0.00000000       0.00000000      -0.28549722
2
Properties=species:S:1:pos:R:3:forces:R:3 energy=-1.390453703404156 pbc="F F F"
Cu       0.00000000       0.00000000       0.00000000       0.00000000       0.00000000       0.26653373
Cu       0.00000000       0.00000000       4.29515152       0.00000000       0.00000000      -0.26653373
2
Properties=species:S:1:pos:R:3:forces:R:3 energy=-1.3752924039508105 pbc="F F F"
Cu       0.00000000       0.00000000       0.00000000       0.00000000       0.00000000       0.24958268
Cu       0.00000000       0.00000000       4.35393939       0.00000000       0.00000000      -0.24958268
2
Properties=species:S:1:pos:R:3:forces:R:3 energy=-1.361077266710431 pbc="F F F"
Cu       0.00000000       0.00000000       0.00000000       0.00000000       0.00000000       0.23425862
Cu       0.00000000       0.00000000       4.41272727       0.00000000       0.00000000      -0.23425862
2
Properties=species:S:1:pos:R:3:forces:R:3 energy=-1.3477242605100397 pbc="F F F"
Cu       0.00000000       0.00000000       0.00000000       0.00000000       0.00000000       0.22019814
Cu       0.00000000       0.00000000       4.47151515       0.00000000       0.00000000      -0.22019814
2
Properties=species:S:1:pos:R:3:forces:R:3 energy=-1.3351687790351359 pbc="F F F"
Cu       0.00000000       0.00000000       0.00000000       0.00000000       0.00000000       0.20707481
Cu       0.00000000       0.00000000       4.53030303       0.00000000       0.00000000      -0.20707481
2
Properties=species:S:1:pos:R:3:forces:R:3 energy=-1.3233644218103127 pbc="F F F"
Cu       0.00000000       0.00000000       0.00000000       0.00000000       0.00000000       0.19461840
Cu       0.00000000       0.00000000       4.58909091       0.00000000       0.00000000      -0.19461840
2
Properties=species:S:1:pos:R:3:forces:R:3 energy=-1.3122777268157613 pbc="F F F"
Cu       0.00000000       0.00000000       0.00000000       0.00000000       0.00000000       0.18262511
Cu       0.00000000       0.00000000       4.64787879       0.00000000       0.00000000      -0.18262511
2
Properties=species:S:1:pos:R:3:forces:R:3 energy=-1.301885385908013 pbc="F F F"
Cu       0.00000000       0.00000000       0.00000000       0.00000000       0.00000000       0.17096534
Cu       0.00000000       0.00000000       4.70666667       0.00000000       0.00000000      -0.17096534
2
Properties=species:S:1:pos:R:3:forces:R:3 energy=-1.292170872113788 pbc="F F F"
Cu       0.00000000       0.00000000       0.00000000       0.00000000       0.00000000       0.15958469
Cu       0.00000000       0.00000000       4.76545455       0.00000000       0.00000000      -0.15958469
2
Properties=species:S:1:pos:R:3:forces:R:3 energy=-1.2831161757591902 pbc="F F F"
Cu       0.00000000       0.00000000       0.00000000       0.00000000       0.00000000       0.14849861
Cu       0.00000000       0.00000000       4.82424242       0.00000000       0.00000000      -0.14849861
2
Properties=species:S:1:pos:R:3:forces:R:3 energy=-1.2747045209407926 pbc="F F F"
Cu       0.00000000       0.00000000       0.00000000       0.00000000       0.00000000       0.13776723
Cu       0.00000000       0.00000000       4.88303030       0.00000000       0.00000000      -0.13776723
2
Properties=species:S:1:pos:R:3:forces:R:3 energy=-1.2669101531245095 pbc="F F F"
Cu       0.00000000       0.00000000       0.00000000       0.00000000       0.00000000       0.12745722
Cu       0.00000000       0.00000000       4.94181818       0.00000000       0.00000000      -0.12745722
2
Properties=species:S:1:pos:R:3:forces:R:3 energy=-1.2597087436159222 pbc="F F F"
Cu       0.00000000       0.00000000       0.00000000       0.00000000       0.00000000       0.11763128
Cu       0.00000000       0.00000000       5.00060606       0.00000000       0.00000000      -0.11763128
2
Properties=species:S:1:pos:R:3:forces:R:3 energy=-1.2530680797323572 pbc="F F F"
Cu       0.00000000       0.00000000       0.00000000       0.00000000       0.00000000       0.10837543
Cu       0.00000000       0.00000000       5.05939394       0.00000000       0.00000000      -0.10837543
2
Properties=species:S:1:pos:R:3:forces:R:3 energy=-1.2469507812739675 pbc="F F F"
Cu       0.00000000       0.00000000       0.00000000       0.00000000       0.00000000       0.09991898
Cu       0.00000000       0.00000000       5.11818182       0.00000000       0.00000000      -0.09991898
2
Properties=species:S:1:pos:R:3:forces:R:3 energy=-1.2412961375301643 pbc="F F F"
Cu       0.00000000       0.00000000       0.00000000       0.00000000       0.00000000       0.09270445
Cu       0.00000000       0.00000000       5.17696970       0.00000000       0.00000000      -0.09270445
2
Properties=species:S:1:pos:R:3:forces:R:3 energy=-1.2360200799371692 pbc="F F F"
Cu       0.00000000       0.00000000       0.00000000       0.00000000       0.00000000       0.08704507
Cu       0.00000000       0.00000000       5.23575758       0.00000000       0.00000000      -0.08704507
2
Properties=species:S:1:pos:R:3:forces:R:3 energy=-1.231044839056579 pbc="F F F"
Cu       0.00000000       0.00000000       0.00000000       0.00000000       0.00000000       0.08219968
Cu       0.00000000       0.00000000       5.29454545       0.00000000       0.00000000      -0.08219968
2
Properties=species:S:1:pos:R:3:forces:R:3 energy=-1.2263816603592008 pbc="F F F"
Cu       0.00000000       0.00000000       0.00000000       0.00000000       0.00000000       0.07600430
Cu       0.00000000       0.00000000       5.35333333       0.00000000       0.00000000      -0.07600430
2
Properties=species:S:1:pos:R:3:forces:R:3 energy=-1.22217469383445 pbc="F F F"
Cu       0.00000000       0.00000000       0.00000000       0.00000000       0.00000000       0.06653838
Cu       0.00000000       0.00000000       5.41212121       0.00000000       0.00000000      -0.06653838
2
Properties=species:S:1:pos:R:3:forces:R:3 energy=-1.2186130317898618 pbc="F F F"
Cu       0.00000000       0.00000000       0.00000000       0.00000000       0.00000000       0.05437373
Cu       0.00000000       0.00000000       5.47090909       0.00000000       0.00000000      -0.05437373
2
Properties=species:S:1:pos:R:3:forces:R:3 energy=-1.2157766298444115 pbc="F F F"
Cu       0.00000000       0.00000000       0.00000000       0.00000000       0.00000000       0.04243816
Cu       0.00000000       0.00000000       5.52969697       0.00000000       0.00000000      -0.04243816
2
Properties=species:S:1:pos:R:3:forces:R:3 energy=-1.2135618232973 pbc="F F F"
Cu       0.00000000       0.00000000       0.00000000       0.00000000       0.00000000       0.03355373
Cu       0.00000000       0.00000000       5.58848485       0.00000000       0.00000000      -0.03355373
2
Properties=species:S:1:pos:R:3:forces:R:3 energy=-1.2117616892362675 pbc="F F F"
Cu       0.00000000       0.00000000       0.00000000       0.00000000       0.00000000       0.02819122
Cu       0.00000000       0.00000000       5.64727273       0.00000000       0.00000000      -0.02819122
2
Properties=species:S:1:pos:R:3:forces:R:3 energy=-1.2102144723985049 pbc="F F F"
Cu       0.00000000       0.00000000       0.00000000       0.00000000       0.00000000       0.02451329
Cu       0.00000000       0.00000000       5.70606061       0.00000000       0.00000000      -0.02451329
2
Properties=species:S:1:pos:R:3:forces:R:3 energy=-1.208885055008616 pbc="F F F"
Cu       0.00000000       0.00000000       0.00000000       0.00000000       0.00000000       0.02050139
Cu       0.00000000       0.00000000       5.76484848       0.00000000       0.00000000      -0.02050139
2
Properties=species:S:1:pos:R:3:forces:R:3 energy=-1.20782046795495 pbc="F F F"
Cu       0.00000000       0.00000000       0.00000000       0.00000000       0.00000000       0.01563253
Cu       0.00000000       0.00000000       5.82363636       0.00000000       0.00000000      -0.01563253
2
Properties=species:S:1:pos:R:3:forces:R:3 energy=-1.2070488234868155 pbc="F F F"
Cu       0.00000000       0.00000000       0.00000000       0.00000000       0.00000000       0.01077606
Cu       0.00000000       0.00000000       5.88242424       0.00000000       0.00000000      -0.01077606
2
Properties=species:S:1:pos:R:3:forces:R:3 energy=-1.206529507906206 pbc="F F F"
Cu       0.00000000       0.00000000       0.00000000       0.00000000       0.00000000       0.00715367
Cu       0.00000000       0.00000000       5.94121212       0.00000000       0.00000000      -0.00715367
2
Properties=species:S:1:pos:R:3:forces:R:3 energy=-1.2061662755827145 pbc="F F F"
Cu       0.00000000       0.00000000       0.00000000       0.00000000       0.00000000       0.00560382
Cu       0.00000000       0.00000000       6.00000000       0.00000000       0.00000000      -0.00560382
