2
Properties=species:S:1:pos:R:3:forces:R:3 energy=60623.64711856513 pbc="F F F"
Eu       0.00000000       0.00000000       0.00000000       0.00000000       0.00000000 -1502270.75000000
Eu       0.00000000       0.00000000       0.10000000       0.00000000       0.00000000 1502270.75000000
2
Properties=species:S:1:pos:R:3:forces:R:3 energy=17089.713524815135 pbc="F F F"
Eu       0.00000000       0.00000000       0.00000000       0.00000000       0.00000000 -316374.46875000
Eu       0.00000000       0.00000000       0.15959596       0.00000000       0.00000000  316374.46875000
2
Properties=species:S:1:pos:R:3:forces:R:3 energy=6286.9596185651335 pbc="F F F"
Eu       0.00000000       0.00000000       0.00000000       0.00000000       0.00000000  -96578.60937500
Eu       0.00000000       0.00000000       0.21919192       0.00000000       0.00000000   96578.60937500
2
Properties=species:S:1:pos:R:3:forces:R:3 energy=2670.861474033884 pbc="F F F"
Eu       0.00000000       0.00000000       0.00000000       0.00000000       0.00000000  -36066.25000000
Eu       0.00000000       0.00000000       0.27878788       0.00000000       0.00000000   36066.25000000
2
Properties=species:S:1:pos:R:3:forces:R:3 energy=1243.6593255995517 pbc="F F F"
Eu       0.00000000       0.00000000       0.00000000       0.00000000       0.00000000  -15181.59375000
Eu       0.00000000       0.00000000       0.33838384       0.00000000       0.00000000   15181.59375000
2
Properties=species:S:1:pos:R:3:forces:R:3 energy=620.3094720839267 pbc="F F F"
Eu       0.00000000       0.00000000       0.00000000       0.00000000       0.00000000   -6925.70214844
Eu       0.00000000       0.00000000       0.39797980       0.00000000       0.00000000    6925.70214844
2
Properties=species:S:1:pos:R:3:forces:R:3 energy=327.8597345382664 pbc="F F F"
Eu       0.00000000       0.00000000       0.00000000       0.00000000       0.00000000   -3360.04052734
Eu       0.00000000       0.00000000       0.45757576       0.00000000       0.00000000    3360.04052734
2
Properties=species:S:1:pos:R:3:forces:R:3 energy=182.62650395061394 pbc="F F F"
Eu       0.00000000       0.00000000       0.00000000       0.00000000       0.00000000   -1715.76232910
Eu       0.00000000       0.00000000       0.51717172       0.00000000       0.00000000    1715.76232910
2
Properties=species:S:1:pos:R:3:forces:R:3 energy=106.97276402458255 pbc="F F F"
Eu       0.00000000       0.00000000       0.00000000       0.00000000       0.00000000    -914.78027344
Eu       0.00000000       0.00000000       0.57676768       0.00000000       0.00000000     914.78027344
2
Properties=species:S:1:pos:R:3:forces:R:3 energy=65.97834875405071 pbc="F F F"
Eu       0.00000000       0.00000000       0.00000000       0.00000000       0.00000000    -504.69158936
Eu       0.00000000       0.00000000       0.63636364       0.00000000       0.00000000     504.69158936
2
Properties=species:S:1:pos:R:3:forces:R:3 energy=43.10457710557718 pbc="F F F"
Eu       0.00000000       0.00000000       0.00000000       0.00000000       0.00000000    -284.81137085
Eu       0.00000000       0.00000000       0.69595960       0.00000000       0.00000000     284.81137085
2
Properties=species:S:1:pos:R:3:forces:R:3 energy=30.12896258952591 pbc="F F F"
Eu       0.00000000       0.00000000       0.00000000       0.00000000       0.00000000    -162.18647766
Eu       0.00000000       0.00000000       0.75555556       0.00000000       0.00000000     162.18647766
2
Properties=species:S:1:pos:R:3:forces:R:3 energy=22.738387218604228 pbc="F F F"
Eu       0.00000000       0.00000000       0.00000000       0.00000000       0.00000000     -92.35671234
Eu       0.00000000       0.00000000       0.81515152       0.00000000       0.00000000      92.35671234
2
Properties=species:S:1:pos:R:3:forces:R:3 energy=18.516535929915896 pbc="F F F"
Eu       0.00000000       0.00000000       0.00000000       0.00000000       0.00000000     -53.24102402
Eu       0.00000000       0.00000000       0.87474747       0.00000000       0.00000000      53.24102402
2
Properties=species:S:1:pos:R:3:forces:R:3 energy=16.031321785216477 pbc="F F F"
Eu       0.00000000       0.00000000       0.00000000       0.00000000       0.00000000     -32.41440964
Eu       0.00000000       0.00000000       0.93434343       0.00000000       0.00000000      32.41440964
2
Properties=species:S:1:pos:R:3:forces:R:3 energy=14.459666628988398 pbc="F F F"
Eu       0.00000000       0.00000000       0.00000000       0.00000000       0.00000000     -21.43242073
Eu       0.00000000       0.00000000       0.99393939       0.00000000       0.00000000      21.43242073
2
Properties=species:S:1:pos:R:3:forces:R:3 energy=13.38390308815475 pbc="F F F"
Eu       0.00000000       0.00000000       0.00000000       0.00000000       0.00000000     -15.25036430
Eu       0.00000000       0.00000000       1.05353535       0.00000000       0.00000000      15.25036430
2
Properties=species:S:1:pos:R:3:forces:R:3 energy=12.580173295748148 pbc="F F F"
Eu       0.00000000       0.00000000       0.00000000       0.00000000       0.00000000     -12.22547054
Eu       0.00000000       0.00000000       1.11313131       0.00000000       0.00000000      12.22547054
2
Properties=species:S:1:pos:R:3:forces:R:3 energy=11.865825741496673 pbc="F F F"
Eu       0.00000000       0.00000000       0.00000000       0.00000000       0.00000000     -12.26357460
Eu       0.00000000       0.00000000       1.17272727       0.00000000       0.00000000      12.26357460
2
Properties=species:S:1:pos:R:3:forces:R:3 energy=11.058506471018584 pbc="F F F"
Eu       0.00000000       0.00000000       0.00000000       0.00000000       0.00000000     -15.30145931
Eu       0.00000000       0.00000000       1.23232323       0.00000000       0.00000000      15.30145931
2
Properties=species:S:1:pos:R:3:forces:R:3 energy=9.993460632599279 pbc="F F F"
Eu       0.00000000       0.00000000       0.00000000       0.00000000       0.00000000     -20.75713158
Eu       0.00000000       0.00000000       1.29191919       0.00000000       0.00000000      20.75713158
2
Properties=species:S:1:pos:R:3:forces:R:3 energy=8.561214075788074 pbc="F F F"
Eu       0.00000000       0.00000000       0.00000000       0.00000000       0.00000000     -27.37617874
Eu       0.00000000       0.00000000       1.35151515       0.00000000       0.00000000      27.37617874
2
Properties=species:S:1:pos:R:3:forces:R:3 energy=6.7362731977657315 pbc="F F F"
Eu       0.00000000       0.00000000       0.00000000       0.00000000       0.00000000     -33.71582031
Eu       0.00000000       0.00000000       1.41111111       0.00000000       0.00000000      33.71582031
2
Properties=species:S:1:pos:R:3:forces:R:3 energy=4.569960973557835 pbc="F F F"
Eu       0.00000000       0.00000000       0.00000000       0.00000000       0.00000000     -38.68718719
Eu       0.00000000       0.00000000       1.47070707       0.00000000       0.00000000      38.68718719
2
Properties=species:S:1:pos:R:3:forces:R:3 energy=2.1664053219215615 pbc="F F F"
Eu       0.00000000       0.00000000       0.00000000       0.00000000       0.00000000     -41.59146881
Eu       0.00000000       0.00000000       1.53030303       0.00000000       0.00000000      41.59146881
2
Properties=species:S:1:pos:R:3:forces:R:3 energy=-0.33945643908791556 pbc="F F F"
Eu       0.00000000       0.00000000       0.00000000       0.00000000       0.00000000     -42.09559631
Eu       0.00000000       0.00000000       1.58989899       0.00000000       0.00000000      42.09559631
2
Properties=species:S:1:pos:R:3:forces:R:3 energy=-2.803329510512443 pbc="F F F"
Eu       0.00000000       0.00000000       0.00000000       0.00000000       0.00000000     -40.20474625
Eu       0.00000000       0.00000000       1.64949495       0.00000000       0.00000000      40.20474625
2
Properties=species:S:1:pos:R:3:forces:R:3 energy=-5.089418248405149 pbc="F F F"
Eu       0.00000000       0.00000000       0.00000000       0.00000000       0.00000000     -36.20735931
Eu       0.00000000       0.00000000       1.70909091       0.00000000       0.00000000      36.20735931
2
Properties=species:S:1:pos:R:3:forces:R:3 energy=-7.091014072301728 pbc="F F F"
Eu       0.00000000       0.00000000       0.00000000       0.00000000       0.00000000     -30.81901932
Eu       0.00000000       0.00000000       1.76868687       0.00000000       0.00000000      30.81901932
2
Properties=species:S:1:pos:R:3:forces:R:3 energy=-8.756544096988364 pbc="F F F"
Eu       0.00000000       0.00000000       0.00000000       0.00000000       0.00000000     -25.10637474
Eu       0.00000000       0.00000000       1.82828283       0.00000000       0.00000000      25.10637474
2
Properties=species:S:1:pos:R:3:forces:R:3 energy=-10.09418315534885 pbc="F F F"
Eu       0.00000000       0.00000000       0.00000000       0.00000000       0.00000000     -19.91546249
Eu       0.00000000       0.00000000       1.88787879       0.00000000       0.00000000      19.91546249
2
Properties=species:S:1:pos:R:3:forces:R:3 energy=-11.148902624748617 pbc="F F F"
Eu       0.00000000       0.00000000       0.00000000       0.00000000       0.00000000     -15.65212727
Eu       0.00000000       0.00000000       1.94747475       0.00000000       0.00000000      15.65212727
2
Properties=species:S:1:pos:R:3:forces:R:3 energy=-11.980989923752807 pbc="F F F"
Eu       0.00000000       0.00000000       0.00000000       0.00000000       0.00000000     -12.44859791
Eu       0.00000000       0.00000000       2.00707071       0.00000000       0.00000000      12.44859791
2
Properties=species:S:1:pos:R:3:forces:R:3 energy=-12.652290654382321 pbc="F F F"
Eu       0.00000000       0.00000000       0.00000000       0.00000000       0.00000000     -10.22637463
Eu       0.00000000       0.00000000       2.06666667       0.00000000       0.00000000      10.22637463
2
Properties=species:S:1:pos:R:3:forces:R:3 energy=-13.21436992990445 pbc="F F F"
Eu       0.00000000       0.00000000       0.00000000       0.00000000       0.00000000      -8.73158741
Eu       0.00000000       0.00000000       2.12626263       0.00000000       0.00000000       8.73158741
2
Properties=species:S:1:pos:R:3:forces:R:3 energy=-13.701315809057085 pbc="F F F"
Eu       0.00000000       0.00000000       0.00000000       0.00000000       0.00000000      -7.65697289
Eu       0.00000000       0.00000000       2.18585859       0.00000000       0.00000000       7.65697289
2
Properties=species:S:1:pos:R:3:forces:R:3 energy=-14.13059758392656 pbc="F F F"
Eu       0.00000000       0.00000000       0.00000000       0.00000000       0.00000000      -6.76671267
Eu       0.00000000       0.00000000       2.24545455       0.00000000       0.00000000       6.76671267
2
Properties=species:S:1:pos:R:3:forces:R:3 energy=-14.509087482322053 pbc="F F F"
Eu       0.00000000       0.00000000       0.00000000       0.00000000       0.00000000      -5.94157934
Eu       0.00000000       0.00000000       2.30505051       0.00000000       0.00000000       5.94157934
2
Properties=species:S:1:pos:R:3:forces:R:3 energy=-14.839476925219923 pbc="F F F"
Eu       0.00000000       0.00000000       0.00000000       0.00000000       0.00000000      -5.15253782
Eu       0.00000000       0.00000000       2.36464646       0.00000000       0.00000000       5.15253782
2
Properties=species:S:1:pos:R:3:forces:R:3 energy=-15.124204698601707 pbc="F F F"
Eu       0.00000000       0.00000000       0.00000000       0.00000000       0.00000000      -4.41287470
Eu       0.00000000       0.00000000       2.42424242       0.00000000       0.00000000       4.41287470
2
Properties=species:S:1:pos:R:3:forces:R:3 energy=-15.366876451660733 pbc="F F F"
Eu       0.00000000       0.00000000       0.00000000       0.00000000       0.00000000      -3.74455476
Eu       0.00000000       0.00000000       2.48383838       0.00000000       0.00000000       3.74455476
2
Properties=species:S:1:pos:R:3:forces:R:3 energy=-15.572282696236902 pbc="F F F"
Eu       0.00000000       0.00000000       0.00000000       0.00000000       0.00000000      -3.16438341
Eu       0.00000000       0.00000000       2.54343434       0.00000000       0.00000000       3.16438341
2
Properties=species:S:1:pos:R:3:forces:R:3 energy=-15.745979731815046 pbc="F F F"
Eu       0.00000000       0.00000000       0.00000000       0.00000000       0.00000000      -2.68127084
Eu       0.00000000       0.00000000       2.60303030       0.00000000       0.00000000       2.68127084
2
Properties=species:S:1:pos:R:3:forces:R:3 energy=-15.89383218913181 pbc="F F F"
Eu       0.00000000       0.00000000       0.00000000       0.00000000       0.00000000      -2.29672623
Eu       0.00000000       0.00000000       2.66262626       0.00000000       0.00000000       2.29672623
2
Properties=species:S:1:pos:R:3:forces:R:3 energy=-16.021576899910094 pbc="F F F"
Eu       0.00000000       0.00000000       0.00000000       0.00000000       0.00000000      -2.00486255
Eu       0.00000000       0.00000000       2.72222222       0.00000000       0.00000000       2.00486255
2
Properties=species:S:1:pos:R:3:forces:R:3 energy=-16.13437369708925 pbc="F F F"
Eu       0.00000000       0.00000000       0.00000000       0.00000000       0.00000000      -1.79231429
Eu       0.00000000       0.00000000       2.78181818       0.00000000       0.00000000       1.79231429
2
Properties=species:S:1:pos:R:3:forces:R:3 energy=-16.236407754650028 pbc="F F F"
Eu       0.00000000       0.00000000       0.00000000       0.00000000       0.00000000      -1.64022136
Eu       0.00000000       0.00000000       2.84141414       0.00000000       0.00000000       1.64022136
2
Properties=species:S:1:pos:R:3:forces:R:3 energy=-16.33067107866703 pbc="F F F"
Eu       0.00000000       0.00000000       0.00000000       0.00000000       0.00000000      -1.52835345
Eu       0.00000000       0.00000000       2.90101010       0.00000000       0.00000000       1.52835345
2
Properties=species:S:1:pos:R:3:forces:R:3 energy=-16.419027882700977 pbc="F F F"
Eu       0.00000000       0.00000000       0.00000000       0.00000000       0.00000000      -1.43944669
Eu       0.00000000       0.00000000       2.96060606       0.00000000       0.00000000       1.43944669
2
Properties=species:S:1:pos:R:3:forces:R:3 energy=-16.50246270736818 pbc="F F F"
Eu       0.00000000       0.00000000       0.00000000       0.00000000       0.00000000      -1.36175549
Eu       0.00000000       0.00000000       3.02020202       0.00000000       0.00000000       1.36175549
2
Properties=species:S:1:pos:R:3:forces:R:3 energy=-16.581436678591093 pbc="F F F"
Eu       0.00000000       0.00000000       0.00000000       0.00000000       0.00000000      -1.28917098
Eu       0.00000000       0.00000000       3.07979798       0.00000000       0.00000000       1.28917098
2
Properties=species:S:1:pos:R:3:forces:R:3 energy=-16.6561794003524 pbc="F F F"
Eu       0.00000000       0.00000000       0.00000000       0.00000000       0.00000000      -1.21957314
Eu       0.00000000       0.00000000       3.13939394       0.00000000       0.00000000       1.21957314
2
Properties=species:S:1:pos:R:3:forces:R:3 energy=-16.726853469436037 pbc="F F F"
Eu       0.00000000       0.00000000       0.00000000       0.00000000       0.00000000      -1.15268528
Eu       0.00000000       0.00000000       3.19898990       0.00000000       0.00000000       1.15268528
2
Properties=species:S:1:pos:R:3:forces:R:3 energy=-16.793628690932298 pbc="F F F"
Eu       0.00000000       0.00000000       0.00000000       0.00000000       0.00000000      -1.08880079
Eu       0.00000000       0.00000000       3.25858586       0.00000000       0.00000000       1.08880079
2
Properties=species:S:1:pos:R:3:forces:R:3 energy=-16.85670872563805 pbc="F F F"
Eu       0.00000000       0.00000000       0.00000000       0.00000000       0.00000000      -1.02898836
Eu       0.00000000       0.00000000       3.31818182       0.00000000       0.00000000       1.02898836
2
Properties=species:S:1:pos:R:3:forces:R:3 energy=-16.916412570627646 pbc="F F F"
Eu       0.00000000       0.00000000       0.00000000       0.00000000       0.00000000      -0.97610444
Eu       0.00000000       0.00000000       3.37777778       0.00000000       0.00000000       0.97610444
2
Properties=species:S:1:pos:R:3:forces:R:3 energy=-16.973286688241767 pbc="F F F"
Eu       0.00000000       0.00000000       0.00000000       0.00000000       0.00000000      -0.93494338
Eu       0.00000000       0.00000000       3.43737374       0.00000000       0.00000000       0.93494338
2
Properties=species:S:1:pos:R:3:forces:R:3 energy=-17.028170124944488 pbc="F F F"
Eu       0.00000000       0.00000000       0.00000000       0.00000000       0.00000000      -0.90965086
Eu       0.00000000       0.00000000       3.49696970       0.00000000       0.00000000       0.90965086
2
Properties=species:S:1:pos:R:3:forces:R:3 energy=-17.081969936855096 pbc="F F F"
Eu       0.00000000       0.00000000       0.00000000       0.00000000       0.00000000      -0.89697427
Eu       0.00000000       0.00000000       3.55656566       0.00000000       0.00000000       0.89697427
2
Properties=species:S:1:pos:R:3:forces:R:3 energy=-17.13497885472 pbc="F F F"
Eu       0.00000000       0.00000000       0.00000000       0.00000000       0.00000000      -0.87874043
Eu       0.00000000       0.00000000       3.61616162       0.00000000       0.00000000       0.87874043
2
Properties=species:S:1:pos:R:3:forces:R:3 energy=-17.18605778791056 pbc="F F F"
Eu       0.00000000       0.00000000       0.00000000       0.00000000       0.00000000      -0.82840192
Eu       0.00000000       0.00000000       3.67575758       0.00000000       0.00000000       0.82840192
2
Properties=species:S:1:pos:R:3:forces:R:3 energy=-17.232915084481043 pbc="F F F"
Eu       0.00000000       0.00000000       0.00000000       0.00000000       0.00000000      -0.73883927
Eu       0.00000000       0.00000000       3.73535354       0.00000000       0.00000000       0.73883927
2
Properties=species:S:1:pos:R:3:forces:R:3 energy=-17.273798689689013 pbc="F F F"
Eu       0.00000000       0.00000000       0.00000000       0.00000000       0.00000000      -0.63304186
Eu       0.00000000       0.00000000       3.79494949       0.00000000       0.00000000       0.63304186
2
Properties=species:S:1:pos:R:3:forces:R:3 energy=-17.308538681262696 pbc="F F F"
Eu       0.00000000       0.00000000       0.00000000       0.00000000       0.00000000      -0.53498960
Eu       0.00000000       0.00000000       3.85454545       0.00000000       0.00000000       0.53498960
2
Properties=species:S:1:pos:R:3:forces:R:3 energy=-17.337809343337813 pbc="F F F"
Eu       0.00000000       0.00000000       0.00000000       0.00000000       0.00000000      -0.44886351
Eu       0.00000000       0.00000000       3.91414141       0.00000000       0.00000000       0.44886351
2
Properties=species:S:1:pos:R:3:forces:R:3 energy=-17.362130319410717 pbc="F F F"
Eu       0.00000000       0.00000000       0.00000000       0.00000000       0.00000000      -0.36740133
Eu       0.00000000       0.00000000       3.97373737       0.00000000       0.00000000       0.36740133
2
Properties=species:S:1:pos:R:3:forces:R:3 energy=-17.381563454171754 pbc="F F F"
Eu       0.00000000       0.00000000       0.00000000       0.00000000       0.00000000      -0.28416792
Eu       0.00000000       0.00000000       4.03333333       0.00000000       0.00000000       0.28416792
2
Properties=species:S:1:pos:R:3:forces:R:3 energy=-17.395926196286428 pbc="F F F"
Eu       0.00000000       0.00000000       0.00000000       0.00000000       0.00000000      -0.19735602
Eu       0.00000000       0.00000000       4.09292929       0.00000000       0.00000000       0.19735602
2
Properties=species:S:1:pos:R:3:forces:R:3 energy=-17.405051103683483 pbc="F F F"
Eu       0.00000000       0.00000000       0.00000000       0.00000000       0.00000000      -0.10879770
Eu       0.00000000       0.00000000       4.15252525       0.00000000       0.00000000       0.10879770
2
Properties=species:S:1:pos:R:3:forces:R:3 energy=-17.408932082635204 pbc="F F F"
Eu       0.00000000       0.00000000       0.00000000       0.00000000       0.00000000      -0.02215950
Eu       0.00000000       0.00000000       4.21212121       0.00000000       0.00000000       0.02215950
2
Properties=species:S:1:pos:R:3:forces:R:3 energy=-17.40781389082333 pbc="F F F"
Eu       0.00000000       0.00000000       0.00000000       0.00000000       0.00000000       0.05836901
Eu       0.00000000       0.00000000       4.27171717       0.00000000       0.00000000      -0.05836901
2
Properties=species:S:1:pos:R:3:forces:R:3 energy=-17.40217557558683 pbc="F F F"
Eu       0.00000000       0.00000000       0.00000000       0.00000000       0.00000000       0.12888873
Eu       0.00000000       0.00000000       4.33131313       0.00000000       0.00000000      -0.12888873
2
Properties=species:S:1:pos:R:3:forces:R:3 energy=-17.39271006803206 pbc="F F F"
Eu       0.00000000       0.00000000       0.00000000       0.00000000       0.00000000       0.18635088
Eu       0.00000000       0.00000000       4.39090909       0.00000000       0.00000000      -0.18635088
2
Properties=species:S:1:pos:R:3:forces:R:3 energy=-17.3802584835635 pbc="F F F"
Eu       0.00000000       0.00000000       0.00000000       0.00000000       0.00000000       0.22896416
Eu       0.00000000       0.00000000       4.45050505       0.00000000       0.00000000      -0.22896416
2
Properties=species:S:1:pos:R:3:forces:R:3 energy=-17.36572058388431 pbc="F F F"
Eu       0.00000000       0.00000000       0.00000000       0.00000000       0.00000000       0.25651035
Eu       0.00000000       0.00000000       4.51010101       0.00000000       0.00000000      -0.25651035
2
Properties=species:S:1:pos:R:3:forces:R:3 energy=-17.34995620308922 pbc="F F F"
Eu       0.00000000       0.00000000       0.00000000       0.00000000       0.00000000       0.27050579
Eu       0.00000000       0.00000000       4.56969697       0.00000000       0.00000000      -0.27050579
2
Properties=species:S:1:pos:R:3:forces:R:3 energy=-17.333686141563398 pbc="F F F"
Eu       0.00000000       0.00000000       0.00000000       0.00000000       0.00000000       0.27410364
Eu       0.00000000       0.00000000       4.62929293       0.00000000       0.00000000      -0.27410364
2
Properties=species:S:1:pos:R:3:forces:R:3 energy=-17.317404554658204 pbc="F F F"
Eu       0.00000000       0.00000000       0.00000000       0.00000000       0.00000000       0.27166718
Eu       0.00000000       0.00000000       4.68888889       0.00000000       0.00000000      -0.27166718
2
Properties=species:S:1:pos:R:3:forces:R:3 energy=-17.301329767107976 pbc="F F F"
Eu       0.00000000       0.00000000       0.00000000       0.00000000       0.00000000       0.26793331
Eu       0.00000000       0.00000000       4.74848485       0.00000000       0.00000000      -0.26793331
2
Properties=species:S:1:pos:R:3:forces:R:3 energy=-17.285415400339627 pbc="F F F"
Eu       0.00000000       0.00000000       0.00000000       0.00000000       0.00000000       0.26689616
Eu       0.00000000       0.00000000       4.80808081       0.00000000       0.00000000      -0.26689616
2
Properties=species:S:1:pos:R:3:forces:R:3 energy=-17.269423219188035 pbc="F F F"
Eu       0.00000000       0.00000000       0.00000000       0.00000000       0.00000000       0.27060705
Eu       0.00000000       0.00000000       4.86767677       0.00000000       0.00000000      -0.27060705
2
Properties=species:S:1:pos:R:3:forces:R:3 energy=-17.253077449737276 pbc="F F F"
Eu       0.00000000       0.00000000       0.00000000       0.00000000       0.00000000       0.27836156
Eu       0.00000000       0.00000000       4.92727273       0.00000000       0.00000000      -0.27836156
2
Properties=species:S:1:pos:R:3:forces:R:3 energy=-17.23622495225628 pbc="F F F"
Eu       0.00000000       0.00000000       0.00000000       0.00000000       0.00000000       0.28702474
Eu       0.00000000       0.00000000       4.98686869       0.00000000       0.00000000      -0.28702474
2
Properties=species:S:1:pos:R:3:forces:R:3 energy=-17.218915627616667 pbc="F F F"
Eu       0.00000000       0.00000000       0.00000000       0.00000000       0.00000000       0.29352391
Eu       0.00000000       0.00000000       5.04646465       0.00000000       0.00000000      -0.29352391
2
Properties=species:S:1:pos:R:3:forces:R:3 energy=-17.201253187933013 pbc="F F F"
Eu       0.00000000       0.00000000       0.00000000       0.00000000       0.00000000       0.29976353
Eu       0.00000000       0.00000000       5.10606061       0.00000000       0.00000000      -0.29976353
2
Properties=species:S:1:pos:R:3:forces:R:3 energy=-17.182979709356978 pbc="F F F"
Eu       0.00000000       0.00000000       0.00000000       0.00000000       0.00000000       0.31638530
Eu       0.00000000       0.00000000       5.16565657       0.00000000       0.00000000      -0.31638530
2
Properties=species:S:1:pos:R:3:forces:R:3 energy=-17.16306725039362 pbc="F F F"
Eu       0.00000000       0.00000000       0.00000000       0.00000000       0.00000000       0.35620621
Eu       0.00000000       0.00000000       5.22525253       0.00000000       0.00000000      -0.35620621
2
Properties=species:S:1:pos:R:3:forces:R:3 energy=-17.14013737356595 pbc="F F F"
Eu       0.00000000       0.00000000       0.00000000       0.00000000       0.00000000       0.41436982
Eu       0.00000000       0.00000000       5.28484848       0.00000000       0.00000000      -0.41436982
2
Properties=species:S:1:pos:R:3:forces:R:3 energy=-17.113937426921073 pbc="F F F"
Eu       0.00000000       0.00000000       0.00000000       0.00000000       0.00000000       0.45945263
Eu       0.00000000       0.00000000       5.34444444       0.00000000       0.00000000      -0.45945263
2
Properties=species:S:1:pos:R:3:forces:R:3 energy=-17.086240749228455 pbc="F F F"
Eu       0.00000000       0.00000000       0.00000000       0.00000000       0.00000000       0.46244442
Eu       0.00000000       0.00000000       5.40404040       0.00000000       0.00000000      -0.46244442
2
Properties=species:S:1:pos:R:3:forces:R:3 energy=-17.05944650502103 pbc="F F F"
Eu       0.00000000       0.00000000       0.00000000       0.00000000       0.00000000       0.43500298
Eu       0.00000000       0.00000000       5.46363636       0.00000000       0.00000000      -0.43500298
2
Properties=species:S:1:pos:R:3:forces:R:3 energy=-17.033987572460617 pbc="F F F"
Eu       0.00000000       0.00000000       0.00000000       0.00000000       0.00000000       0.42829281
Eu       0.00000000       0.00000000       5.52323232       0.00000000       0.00000000      -0.42829281
2
Properties=species:S:1:pos:R:3:forces:R:3 energy=-17.006981965491182 pbc="F F F"
Eu       0.00000000       0.00000000       0.00000000       0.00000000       0.00000000       0.49113399
Eu       0.00000000       0.00000000       5.58282828       0.00000000       0.00000000      -0.49113399
2
Properties=species:S:1:pos:R:3:forces:R:3 energy=-16.974229656794954 pbc="F F F"
Eu       0.00000000       0.00000000       0.00000000       0.00000000       0.00000000       0.61253762
Eu       0.00000000       0.00000000       5.64242424       0.00000000       0.00000000      -0.61253762
2
Properties=species:S:1:pos:R:3:forces:R:3 energy=-16.934505956208476 pbc="F F F"
Eu       0.00000000       0.00000000       0.00000000       0.00000000       0.00000000       0.70547414
Eu       0.00000000       0.00000000       5.70202020       0.00000000       0.00000000      -0.70547414
2
Properties=species:S:1:pos:R:3:forces:R:3 energy=-16.892695221169856 pbc="F F F"
Eu       0.00000000       0.00000000       0.00000000       0.00000000       0.00000000       0.67455745
Eu       0.00000000       0.00000000       5.76161616       0.00000000       0.00000000      -0.67455745
2
Properties=species:S:1:pos:R:3:forces:R:3 energy=-16.856855377480787 pbc="F F F"
Eu       0.00000000       0.00000000       0.00000000       0.00000000       0.00000000       0.50903565
Eu       0.00000000       0.00000000       5.82121212       0.00000000       0.00000000      -0.50903565
2
Properties=species:S:1:pos:R:3:forces:R:3 energy=-16.833230050576283 pbc="F F F"
Eu       0.00000000       0.00000000       0.00000000       0.00000000       0.00000000       0.28594187
Eu       0.00000000       0.00000000       5.88080808       0.00000000       0.00000000      -0.28594187
2
Properties=species:S:1:pos:R:3:forces:R:3 energy=-16.821842583847218 pbc="F F F"
Eu       0.00000000       0.00000000       0.00000000       0.00000000       0.00000000       0.10693780
Eu       0.00000000       0.00000000       5.94040404       0.00000000       0.00000000      -0.10693780
2
Properties=species:S:1:pos:R:3:forces:R:3 energy=-16.81818012611282 pbc="F F F"
Eu       0.00000000       0.00000000       0.00000000       0.00000000       0.00000000       0.03898740
Eu       0.00000000       0.00000000       6.00000000       0.00000000       0.00000000      -0.03898740
