2
Properties=species:S:1:pos:R:3:forces:R:3 energy=747.4909129382943 pbc="F F F"
F        0.00000000       0.00000000       0.00000000       0.00000000       0.00000000   -9395.23437500
F        0.00000000       0.00000000       0.18000000       0.00000000       0.00000000    9395.23437500
2
Properties=species:S:1:pos:R:3:forces:R:3 energy=393.24466660079963 pbc="F F F"
F        0.00000000       0.00000000       0.00000000       0.00000000       0.00000000   -3683.99829102
F        0.00000000       0.00000000       0.23878788       0.00000000       0.00000000    3683.99829102
2
Properties=species:S:1:pos:R:3:forces:R:3 energy=247.3499675057039 pbc="F F F"
F        0.00000000       0.00000000       0.00000000       0.00000000       0.00000000   -1595.13769531
F        0.00000000       0.00000000       0.29757576       0.00000000       0.00000000    1595.13769531
2
Properties=species:S:1:pos:R:3:forces:R:3 energy=181.17563584422862 pbc="F F F"
F        0.00000000       0.00000000       0.00000000       0.00000000       0.00000000    -804.26745605
F        0.00000000       0.00000000       0.35636364       0.00000000       0.00000000     804.26745605
2
Properties=species:S:1:pos:R:3:forces:R:3 energy=139.4401317021535 pbc="F F F"
F        0.00000000       0.00000000       0.00000000       0.00000000       0.00000000    -682.49926758
F        0.00000000       0.00000000       0.41515152       0.00000000       0.00000000     682.49926758
2
Properties=species:S:1:pos:R:3:forces:R:3 energy=99.37929492718838 pbc="F F F"
F        0.00000000       0.00000000       0.00000000       0.00000000       0.00000000    -654.74353027
F        0.00000000       0.00000000       0.47393939       0.00000000       0.00000000     654.74353027
2
Properties=species:S:1:pos:R:3:forces:R:3 energy=67.30306204791839 pbc="F F F"
F        0.00000000       0.00000000       0.00000000       0.00000000       0.00000000    -411.88635254
F        0.00000000       0.00000000       0.53272727       0.00000000       0.00000000     411.88635254
2
Properties=species:S:1:pos:R:3:forces:R:3 energy=51.519118925897814 pbc="F F F"
F        0.00000000       0.00000000       0.00000000       0.00000000       0.00000000    -145.98693848
F        0.00000000       0.00000000       0.59151515       0.00000000       0.00000000     145.98693848
2
Properties=species:S:1:pos:R:3:forces:R:3 energy=46.17187856739074 pbc="F F F"
F        0.00000000       0.00000000       0.00000000       0.00000000       0.00000000     -60.18542480
F        0.00000000       0.00000000       0.65030303       0.00000000       0.00000000      60.18542480
2
Properties=species:S:1:pos:R:3:forces:R:3 energy=40.92679203804098 pbc="F F F"
F        0.00000000       0.00000000       0.00000000       0.00000000       0.00000000    -139.23974609
F        0.00000000       0.00000000       0.70909091       0.00000000       0.00000000     139.23974609
2
Properties=species:S:1:pos:R:3:forces:R:3 energy=29.709091293221043 pbc="F F F"
F        0.00000000       0.00000000       0.00000000       0.00000000       0.00000000    -216.39959717
F        0.00000000       0.00000000       0.76787879       0.00000000       0.00000000     216.39959717
2
Properties=species:S:1:pos:R:3:forces:R:3 energy=18.483185235161102 pbc="F F F"
F        0.00000000       0.00000000       0.00000000       0.00000000       0.00000000    -150.70405579
F        0.00000000       0.00000000       0.82666667       0.00000000       0.00000000     150.70405579
2
Properties=species:S:1:pos:R:3:forces:R:3 energy=12.016012108240886 pbc="F F F"
F        0.00000000       0.00000000       0.00000000       0.00000000       0.00000000     -78.49723053
F        0.00000000       0.00000000       0.88545455       0.00000000       0.00000000      78.49723053
2
Properties=species:S:1:pos:R:3:forces:R:3 energy=8.230582782524776 pbc="F F F"
F        0.00000000       0.00000000       0.00000000       0.00000000       0.00000000     -55.63111496
F        0.00000000       0.00000000       0.94424242       0.00000000       0.00000000      55.63111496
2
Properties=species:S:1:pos:R:3:forces:R:3 energy=5.163446400433007 pbc="F F F"
F        0.00000000       0.00000000       0.00000000       0.00000000       0.00000000     -49.55876160
F        0.00000000       0.00000000       1.00303030       0.00000000       0.00000000      49.55876160
2
Properties=species:S:1:pos:R:3:forces:R:3 energy=2.508598974760406 pbc="F F F"
F        0.00000000       0.00000000       0.00000000       0.00000000       0.00000000     -39.55625916
F        0.00000000       0.00000000       1.06181818       0.00000000       0.00000000      39.55625916
2
Properties=species:S:1:pos:R:3:forces:R:3 energy=0.5619385267544112 pbc="F F F"
F        0.00000000       0.00000000       0.00000000       0.00000000       0.00000000     -27.03340340
F        0.00000000       0.00000000       1.12060606       0.00000000       0.00000000      27.03340340
2
Properties=species:S:1:pos:R:3:forces:R:3 energy=-0.7498540410836045 pbc="F F F"
F        0.00000000       0.00000000       0.00000000       0.00000000       0.00000000     -18.23900795
F        0.00000000       0.00000000       1.17939394       0.00000000       0.00000000      18.23900795
2
Properties=species:S:1:pos:R:3:forces:R:3 energy=-1.6331824240195345 pbc="F F F"
F        0.00000000       0.00000000       0.00000000       0.00000000       0.00000000     -12.08377171
F        0.00000000       0.00000000       1.23818182       0.00000000       0.00000000      12.08377171
2
Properties=species:S:1:pos:R:3:forces:R:3 energy=-2.196148715722994 pbc="F F F"
F        0.00000000       0.00000000       0.00000000       0.00000000       0.00000000      -7.26172876
F        0.00000000       0.00000000       1.29696970       0.00000000       0.00000000       7.26172876
2
Properties=species:S:1:pos:R:3:forces:R:3 energy=-2.5074254647971066 pbc="F F F"
F        0.00000000       0.00000000       0.00000000       0.00000000       0.00000000      -3.48502684
F        0.00000000       0.00000000       1.35575758       0.00000000       0.00000000       3.48502684
2
Properties=species:S:1:pos:R:3:forces:R:3 energy=-2.623353876320834 pbc="F F F"
F        0.00000000       0.00000000       0.00000000       0.00000000       0.00000000      -0.60003483
F        0.00000000       0.00000000       1.41454545       0.00000000       0.00000000       0.60003483
2
Properties=species:S:1:pos:R:3:forces:R:3 energy=-2.592705864494929 pbc="F F F"
F        0.00000000       0.00000000       0.00000000       0.00000000       0.00000000       1.54158556
F        0.00000000       0.00000000       1.47333333       0.00000000       0.00000000      -1.54158556
2
Properties=species:S:1:pos:R:3:forces:R:3 energy=-2.4505196986543445 pbc="F F F"
F        0.00000000       0.00000000       0.00000000       0.00000000       0.00000000       3.24920011
F        0.00000000       0.00000000       1.53212121       0.00000000       0.00000000      -3.24920011
2
Properties=species:S:1:pos:R:3:forces:R:3 energy=-2.2153582460916152 pbc="F F F"
F        0.00000000       0.00000000       0.00000000       0.00000000       0.00000000       4.69970083
F        0.00000000       0.00000000       1.59090909       0.00000000       0.00000000      -4.69970083
2
Properties=species:S:1:pos:R:3:forces:R:3 energy=-1.908578328338717 pbc="F F F"
F        0.00000000       0.00000000       0.00000000       0.00000000       0.00000000       5.59730148
F        0.00000000       0.00000000       1.64969697       0.00000000       0.00000000      -5.59730148
2
Properties=species:S:1:pos:R:3:forces:R:3 energy=-1.5783820310872634 pbc="F F F"
F        0.00000000       0.00000000       0.00000000       0.00000000       0.00000000       5.44037199
F        0.00000000       0.00000000       1.70848485       0.00000000       0.00000000      -5.44037199
2
Properties=species:S:1:pos:R:3:forces:R:3 energy=-1.2886476401594829 pbc="F F F"
F        0.00000000       0.00000000       0.00000000       0.00000000       0.00000000       4.29988670
F        0.00000000       0.00000000       1.76727273       0.00000000       0.00000000      -4.29988670
2
Properties=species:S:1:pos:R:3:forces:R:3 energy=-1.0791238844065314 pbc="F F F"
F        0.00000000       0.00000000       0.00000000       0.00000000       0.00000000       2.83186436
F        0.00000000       0.00000000       1.82606061       0.00000000       0.00000000      -2.83186436
2
Properties=species:S:1:pos:R:3:forces:R:3 energy=-0.9508241548346574 pbc="F F F"
F        0.00000000       0.00000000       0.00000000       0.00000000       0.00000000       1.59737182
F        0.00000000       0.00000000       1.88484848       0.00000000       0.00000000      -1.59737182
2
Properties=species:S:1:pos:R:3:forces:R:3 energy=-0.8831230107232219 pbc="F F F"
F        0.00000000       0.00000000       0.00000000       0.00000000       0.00000000       0.77282965
F        0.00000000       0.00000000       1.94363636       0.00000000       0.00000000      -0.77282965
2
Properties=species:S:1:pos:R:3:forces:R:3 energy=-0.8531460884131006 pbc="F F F"
F        0.00000000       0.00000000       0.00000000       0.00000000       0.00000000       0.29436776
F        0.00000000       0.00000000       2.00242424       0.00000000       0.00000000      -0.29436776
2
Properties=species:S:1:pos:R:3:forces:R:3 energy=-0.8441758034650825 pbc="F F F"
F        0.00000000       0.00000000       0.00000000       0.00000000       0.00000000       0.03828603
F        0.00000000       0.00000000       2.06121212       0.00000000       0.00000000      -0.03828603
2
Properties=species:S:1:pos:R:3:forces:R:3 energy=-0.8462863831307689 pbc="F F F"
F        0.00000000       0.00000000       0.00000000       0.00000000       0.00000000      -0.09606134
F        0.00000000       0.00000000       2.12000000       0.00000000       0.00000000       0.09606134
2
Properties=species:S:1:pos:R:3:forces:R:3 energy=-0.8543169993522778 pbc="F F F"
F        0.00000000       0.00000000       0.00000000       0.00000000       0.00000000      -0.17055215
F        0.00000000       0.00000000       2.17878788       0.00000000       0.00000000       0.17055215
2
Properties=species:S:1:pos:R:3:forces:R:3 energy=-0.8658066538785509 pbc="F F F"
F        0.00000000       0.00000000       0.00000000       0.00000000       0.00000000      -0.21730945
F        0.00000000       0.00000000       2.23757576       0.00000000       0.00000000       0.21730945
2
Properties=species:S:1:pos:R:3:forces:R:3 energy=-0.879616962142777 pbc="F F F"
F        0.00000000       0.00000000       0.00000000       0.00000000       0.00000000      -0.25103694
F        0.00000000       0.00000000       2.29636364       0.00000000       0.00000000       0.25103694
2
Properties=species:S:1:pos:R:3:forces:R:3 energy=-0.8951900668714623 pbc="F F F"
F        0.00000000       0.00000000       0.00000000       0.00000000       0.00000000      -0.27788273
F        0.00000000       0.00000000       2.35515152       0.00000000       0.00000000       0.27788273
2
Properties=species:S:1:pos:R:3:forces:R:3 energy=-0.9122033748877769 pbc="F F F"
F        0.00000000       0.00000000       0.00000000       0.00000000       0.00000000      -0.30028358
F        0.00000000       0.00000000       2.41393939       0.00000000       0.00000000       0.30028358
2
Properties=species:S:1:pos:R:3:forces:R:3 energy=-0.9304280243826325 pbc="F F F"
F        0.00000000       0.00000000       0.00000000       0.00000000       0.00000000      -0.31917325
F        0.00000000       0.00000000       2.47272727       0.00000000       0.00000000       0.31917325
2
Properties=species:S:1:pos:R:3:forces:R:3 energy=-0.949667229745339 pbc="F F F"
F        0.00000000       0.00000000       0.00000000       0.00000000       0.00000000      -0.33480665
F        0.00000000       0.00000000       2.53151515       0.00000000       0.00000000       0.33480665
2
Properties=species:S:1:pos:R:3:forces:R:3 energy=-0.969726432891837 pbc="F F F"
F        0.00000000       0.00000000       0.00000000       0.00000000       0.00000000      -0.34705114
F        0.00000000       0.00000000       2.59030303       0.00000000       0.00000000       0.34705114
2
Properties=species:S:1:pos:R:3:forces:R:3 energy=-0.9903980397239017 pbc="F F F"
F        0.00000000       0.00000000       0.00000000       0.00000000       0.00000000      -0.35555124
F        0.00000000       0.00000000       2.64909091       0.00000000       0.00000000       0.35555124
2
Properties=species:S:1:pos:R:3:forces:R:3 energy=-1.0114489999802954 pbc="F F F"
F        0.00000000       0.00000000       0.00000000       0.00000000       0.00000000      -0.35988504
F        0.00000000       0.00000000       2.70787879       0.00000000       0.00000000       0.35988504
2
Properties=species:S:1:pos:R:3:forces:R:3 energy=-1.032623738159783 pbc="F F F"
F        0.00000000       0.00000000       0.00000000       0.00000000       0.00000000      -0.35974541
F        0.00000000       0.00000000       2.76666667       0.00000000       0.00000000       0.35974541
2
Properties=species:S:1:pos:R:3:forces:R:3 energy=-1.0536573873361839 pbc="F F F"
F        0.00000000       0.00000000       0.00000000       0.00000000       0.00000000      -0.35507312
F        0.00000000       0.00000000       2.82545455       0.00000000       0.00000000       0.35507312
2
Properties=species:S:1:pos:R:3:forces:R:3 energy=-1.0742876496907263 pbc="F F F"
F        0.00000000       0.00000000       0.00000000       0.00000000       0.00000000      -0.34610429
F        0.00000000       0.00000000       2.88424242       0.00000000       0.00000000       0.34610429
2
Properties=species:S:1:pos:R:3:forces:R:3 energy=-1.0942762308214782 pbc="F F F"
F        0.00000000       0.00000000       0.00000000       0.00000000       0.00000000      -0.33333930
F        0.00000000       0.00000000       2.94303030       0.00000000       0.00000000       0.33333930
2
Properties=species:S:1:pos:R:3:forces:R:3 energy=-1.1134188339207585 pbc="F F F"
F        0.00000000       0.00000000       0.00000000       0.00000000       0.00000000      -0.31743810
F        0.00000000       0.00000000       3.00181818       0.00000000       0.00000000       0.31743810
2
Properties=species:S:1:pos:R:3:forces:R:3 energy=-1.1315514402495959 pbc="F F F"
F        0.00000000       0.00000000       0.00000000       0.00000000       0.00000000      -0.29911125
F        0.00000000       0.00000000       3.06060606       0.00000000       0.00000000       0.29911125
2
Properties=species:S:1:pos:R:3:forces:R:3 energy=-1.1485526521418319 pbc="F F F"
F        0.00000000       0.00000000       0.00000000       0.00000000       0.00000000      -0.27902836
F        0.00000000       0.00000000       3.11939394       0.00000000       0.00000000       0.27902836
2
Properties=species:S:1:pos:R:3:forces:R:3 energy=-1.1643362616384356 pbc="F F F"
F        0.00000000       0.00000000       0.00000000       0.00000000       0.00000000      -0.25777909
F        0.00000000       0.00000000       3.17818182       0.00000000       0.00000000       0.25777909
2
Properties=species:S:1:pos:R:3:forces:R:3 energy=-1.1788482231339115 pbc="F F F"
F        0.00000000       0.00000000       0.00000000       0.00000000       0.00000000      -0.23584642
F        0.00000000       0.00000000       3.23696970       0.00000000       0.00000000       0.23584642
2
Properties=species:S:1:pos:R:3:forces:R:3 energy=-1.1920599287528288 pbc="F F F"
F        0.00000000       0.00000000       0.00000000       0.00000000       0.00000000      -0.21363576
F        0.00000000       0.00000000       3.29575758       0.00000000       0.00000000       0.21363576
2
Properties=species:S:1:pos:R:3:forces:R:3 energy=-1.2039678257753552 pbc="F F F"
F        0.00000000       0.00000000       0.00000000       0.00000000       0.00000000      -0.19147794
F        0.00000000       0.00000000       3.35454545       0.00000000       0.00000000       0.19147794
2
Properties=species:S:1:pos:R:3:forces:R:3 energy=-1.2145805046140845 pbc="F F F"
F        0.00000000       0.00000000       0.00000000       0.00000000       0.00000000      -0.16965799
F        0.00000000       0.00000000       3.41333333       0.00000000       0.00000000       0.16965799
2
Properties=species:S:1:pos:R:3:forces:R:3 energy=-1.223926191378269 pbc="F F F"
F        0.00000000       0.00000000       0.00000000       0.00000000       0.00000000      -0.14840184
F        0.00000000       0.00000000       3.47212121       0.00000000       0.00000000       0.14840184
2
Properties=species:S:1:pos:R:3:forces:R:3 energy=-1.2320433186586002 pbc="F F F"
F        0.00000000       0.00000000       0.00000000       0.00000000       0.00000000      -0.12787652
F        0.00000000       0.00000000       3.53090909       0.00000000       0.00000000       0.12787652
2
Properties=species:S:1:pos:R:3:forces:R:3 energy=-1.2389771868751451 pbc="F F F"
F        0.00000000       0.00000000       0.00000000       0.00000000       0.00000000      -0.10816692
F        0.00000000       0.00000000       3.58969697       0.00000000       0.00000000       0.10816692
2
Properties=species:S:1:pos:R:3:forces:R:3 energy=-1.2447768658257639 pbc="F F F"
F        0.00000000       0.00000000       0.00000000       0.00000000       0.00000000      -0.08928241
F        0.00000000       0.00000000       3.64848485       0.00000000       0.00000000       0.08928241
2
Properties=species:S:1:pos:R:3:forces:R:3 energy=-1.2494900880895687 pbc="F F F"
F        0.00000000       0.00000000       0.00000000       0.00000000       0.00000000      -0.07116682
F        0.00000000       0.00000000       3.70727273       0.00000000       0.00000000       0.07116682
2
Properties=species:S:1:pos:R:3:forces:R:3 energy=-1.2531581252053516 pbc="F F F"
F        0.00000000       0.00000000       0.00000000       0.00000000       0.00000000      -0.05373400
F        0.00000000       0.00000000       3.76606061       0.00000000       0.00000000       0.05373400
2
Properties=species:S:1:pos:R:3:forces:R:3 energy=-1.2558195130558807 pbc="F F F"
F        0.00000000       0.00000000       0.00000000       0.00000000       0.00000000      -0.03691839
F        0.00000000       0.00000000       3.82484848       0.00000000       0.00000000       0.03691839
2
Properties=species:S:1:pos:R:3:forces:R:3 energy=-1.2575104181082868 pbc="F F F"
F        0.00000000       0.00000000       0.00000000       0.00000000       0.00000000      -0.02070425
F        0.00000000       0.00000000       3.88363636       0.00000000       0.00000000       0.02070425
2
Properties=species:S:1:pos:R:3:forces:R:3 energy=-1.258267165755743 pbc="F F F"
F        0.00000000       0.00000000       0.00000000       0.00000000       0.00000000      -0.00515520
F        0.00000000       0.00000000       3.94242424       0.00000000       0.00000000       0.00515520
2
Properties=species:S:1:pos:R:3:forces:R:3 energy=-1.258132213948202 pbc="F F F"
F        0.00000000       0.00000000       0.00000000       0.00000000       0.00000000       0.00960696
F        0.00000000       0.00000000       4.00121212       0.00000000       0.00000000      -0.00960696
2
Properties=species:S:1:pos:R:3:forces:R:3 energy=-1.2571559588537573 pbc="F F F"
F        0.00000000       0.00000000       0.00000000       0.00000000       0.00000000       0.02342624
F        0.00000000       0.00000000       4.06000000       0.00000000       0.00000000      -0.02342624
2
Properties=species:S:1:pos:R:3:forces:R:3 energy=-1.2553990121104543 pbc="F F F"
F        0.00000000       0.00000000       0.00000000       0.00000000       0.00000000       0.03615939
F        0.00000000       0.00000000       4.11878788       0.00000000       0.00000000      -0.03615939
2
Properties=species:S:1:pos:R:3:forces:R:3 energy=-1.2529279227551107 pbc="F F F"
F        0.00000000       0.00000000       0.00000000       0.00000000       0.00000000       0.04769792
F        0.00000000       0.00000000       4.17757576       0.00000000       0.00000000      -0.04769792
2
Properties=species:S:1:pos:R:3:forces:R:3 energy=-1.2498154258383236 pbc="F F F"
F        0.00000000       0.00000000       0.00000000       0.00000000       0.00000000       0.05797312
F        0.00000000       0.00000000       4.23636364       0.00000000       0.00000000      -0.05797312
2
Properties=species:S:1:pos:R:3:forces:R:3 energy=-1.246137229713318 pbc="F F F"
F        0.00000000       0.00000000       0.00000000       0.00000000       0.00000000       0.06694254
F        0.00000000       0.00000000       4.29515152       0.00000000       0.00000000      -0.06694254
2
Properties=species:S:1:pos:R:3:forces:R:3 energy=-1.2419708337435007 pbc="F F F"
F        0.00000000       0.00000000       0.00000000       0.00000000       0.00000000       0.07458480
F        0.00000000       0.00000000       4.35393939       0.00000000       0.00000000      -0.07458480
2
Properties=species:S:1:pos:R:3:forces:R:3 energy=-1.237393979819127 pbc="F F F"
F        0.00000000       0.00000000       0.00000000       0.00000000       0.00000000       0.08089661
F        0.00000000       0.00000000       4.41272727       0.00000000       0.00000000      -0.08089661
2
Properties=species:S:1:pos:R:3:forces:R:3 energy=-1.2324844213138078 pbc="F F F"
F        0.00000000       0.00000000       0.00000000       0.00000000       0.00000000       0.08593018
F        0.00000000       0.00000000       4.47151515       0.00000000       0.00000000      -0.08593018
2
Properties=species:S:1:pos:R:3:forces:R:3 energy=-1.227312890280895 pbc="F F F"
F        0.00000000       0.00000000       0.00000000       0.00000000       0.00000000       0.08984114
F        0.00000000       0.00000000       4.53030303       0.00000000       0.00000000      -0.08984114
2
Properties=species:S:1:pos:R:3:forces:R:3 energy=-1.221937258079188 pbc="F F F"
F        0.00000000       0.00000000       0.00000000       0.00000000       0.00000000       0.09294212
F        0.00000000       0.00000000       4.58909091       0.00000000       0.00000000      -0.09294212
2
Properties=species:S:1:pos:R:3:forces:R:3 energy=-1.2163918098036912 pbc="F F F"
F        0.00000000       0.00000000       0.00000000       0.00000000       0.00000000       0.09571308
F        0.00000000       0.00000000       4.64787879       0.00000000       0.00000000      -0.09571308
2
Properties=species:S:1:pos:R:3:forces:R:3 energy=-1.2106781824492159 pbc="F F F"
F        0.00000000       0.00000000       0.00000000       0.00000000       0.00000000       0.09875601
F        0.00000000       0.00000000       4.70666667       0.00000000       0.00000000      -0.09875601
2
Properties=species:S:1:pos:R:3:forces:R:3 energy=-1.2047633402828497 pbc="F F F"
F        0.00000000       0.00000000       0.00000000       0.00000000       0.00000000       0.10267328
F        0.00000000       0.00000000       4.76545455       0.00000000       0.00000000      -0.10267328
2
Properties=species:S:1:pos:R:3:forces:R:3 energy=-1.1985806470346019 pbc="F F F"
F        0.00000000       0.00000000       0.00000000       0.00000000       0.00000000       0.10786864
F        0.00000000       0.00000000       4.82424242       0.00000000       0.00000000      -0.10786864
2
Properties=species:S:1:pos:R:3:forces:R:3 energy=-1.1920560918421097 pbc="F F F"
F        0.00000000       0.00000000       0.00000000       0.00000000       0.00000000       0.11430007
F        0.00000000       0.00000000       4.88303030       0.00000000       0.00000000      -0.11430007
2
Properties=species:S:1:pos:R:3:forces:R:3 energy=-1.18513153382467 pbc="F F F"
F        0.00000000       0.00000000       0.00000000       0.00000000       0.00000000       0.12124823
F        0.00000000       0.00000000       4.94181818       0.00000000       0.00000000      -0.12124823
2
Properties=species:S:1:pos:R:3:forces:R:3 energy=-1.1778181074489806 pbc="F F F"
F        0.00000000       0.00000000       0.00000000       0.00000000       0.00000000       0.12725802
F        0.00000000       0.00000000       5.00060606       0.00000000       0.00000000      -0.12725802
2
Properties=species:S:1:pos:R:3:forces:R:3 energy=-1.1702225680048688 pbc="F F F"
F        0.00000000       0.00000000       0.00000000       0.00000000       0.00000000       0.13053827
F        0.00000000       0.00000000       5.05939394       0.00000000       0.00000000      -0.13053827
2
Properties=species:S:1:pos:R:3:forces:R:3 energy=-1.16254156745576 pbc="F F F"
F        0.00000000       0.00000000       0.00000000       0.00000000       0.00000000       0.13027281
F        0.00000000       0.00000000       5.11818182       0.00000000       0.00000000      -0.13027281
2
Properties=species:S:1:pos:R:3:forces:R:3 energy=-1.154932192432517 pbc="F F F"
F        0.00000000       0.00000000       0.00000000       0.00000000       0.00000000       0.12883759
F        0.00000000       0.00000000       5.17696970       0.00000000       0.00000000      -0.12883759
2
Properties=species:S:1:pos:R:3:forces:R:3 energy=-1.1472896396261372 pbc="F F F"
F        0.00000000       0.00000000       0.00000000       0.00000000       0.00000000       0.13270880
F        0.00000000       0.00000000       5.23575758       0.00000000       0.00000000      -0.13270880
2
Properties=species:S:1:pos:R:3:forces:R:3 energy=-1.1391084528831492 pbc="F F F"
F        0.00000000       0.00000000       0.00000000       0.00000000       0.00000000       0.14744468
F        0.00000000       0.00000000       5.29454545       0.00000000       0.00000000      -0.14744468
2
Properties=species:S:1:pos:R:3:forces:R:3 energy=-1.129826801242497 pbc="F F F"
F        0.00000000       0.00000000       0.00000000       0.00000000       0.00000000       0.16825309
F        0.00000000       0.00000000       5.35333333       0.00000000       0.00000000      -0.16825309
2
Properties=species:S:1:pos:R:3:forces:R:3 energy=-1.1194804588706393 pbc="F F F"
F        0.00000000       0.00000000       0.00000000       0.00000000       0.00000000       0.18152358
F        0.00000000       0.00000000       5.41212121       0.00000000       0.00000000      -0.18152358
2
Properties=species:S:1:pos:R:3:forces:R:3 energy=-1.1087631245908334 pbc="F F F"
F        0.00000000       0.00000000       0.00000000       0.00000000       0.00000000       0.18112181
F        0.00000000       0.00000000       5.47090909       0.00000000       0.00000000      -0.18112181
2
Properties=species:S:1:pos:R:3:forces:R:3 energy=-1.0982801712850723 pbc="F F F"
F        0.00000000       0.00000000       0.00000000       0.00000000       0.00000000       0.17592834
F        0.00000000       0.00000000       5.52969697       0.00000000       0.00000000      -0.17592834
2
Properties=species:S:1:pos:R:3:forces:R:3 energy=-1.0879012195124502 pbc="F F F"
F        0.00000000       0.00000000       0.00000000       0.00000000       0.00000000       0.17931542
F        0.00000000       0.00000000       5.58848485       0.00000000       0.00000000      -0.17931542
2
Properties=species:S:1:pos:R:3:forces:R:3 energy=-1.0770018932306629 pbc="F F F"
F        0.00000000       0.00000000       0.00000000       0.00000000       0.00000000       0.19228262
F        0.00000000       0.00000000       5.64727273       0.00000000       0.00000000      -0.19228262
2
Properties=species:S:1:pos:R:3:forces:R:3 energy=-1.0654599321121458 pbc="F F F"
F        0.00000000       0.00000000       0.00000000       0.00000000       0.00000000       0.19678414
F        0.00000000       0.00000000       5.70606061       0.00000000       0.00000000      -0.19678414
2
Properties=species:S:1:pos:R:3:forces:R:3 energy=-1.0544094283725822 pbc="F F F"
F        0.00000000       0.00000000       0.00000000       0.00000000       0.00000000       0.17295727
F        0.00000000       0.00000000       5.76484848       0.00000000       0.00000000      -0.17295727
2
Properties=species:S:1:pos:R:3:forces:R:3 energy=-1.0456654030105212 pbc="F F F"
F        0.00000000       0.00000000       0.00000000       0.00000000       0.00000000       0.12140667
F        0.00000000       0.00000000       5.82363636       0.00000000       0.00000000      -0.12140667
2
Properties=species:S:1:pos:R:3:forces:R:3 energy=-1.0403202348402505 pbc="F F F"
F        0.00000000       0.00000000       0.00000000       0.00000000       0.00000000       0.06191777
F        0.00000000       0.00000000       5.88242424       0.00000000       0.00000000      -0.06191777
2
Properties=species:S:1:pos:R:3:forces:R:3 energy=-1.0381080367455264 pbc="F F F"
F        0.00000000       0.00000000       0.00000000       0.00000000       0.00000000       0.01678274
F        0.00000000       0.00000000       5.94121212       0.00000000       0.00000000      -0.01678274
2
Properties=species:S:1:pos:R:3:forces:R:3 energy=-1.037773965229524 pbc="F F F"
F        0.00000000       0.00000000       0.00000000       0.00000000       0.00000000       0.00013400
F        0.00000000       0.00000000       6.00000000       0.00000000       0.00000000      -0.00013400
