2
Properties=species:S:1:pos:R:3:forces:R:3 energy=2589.6553416500237 pbc="F F F"
F        0.00000000       0.00000000       0.00000000       0.00000000       0.00000000  -50234.01953125
F        0.00000000       0.00000000       0.10000000       0.00000000       0.00000000   50234.01953125
2
Properties=species:S:1:pos:R:3:forces:R:3 energy=978.6919017086175 pbc="F F F"
F        0.00000000       0.00000000       0.00000000       0.00000000       0.00000000  -13578.10644531
F        0.00000000       0.00000000       0.15959596       0.00000000       0.00000000   13578.10644531
2
Properties=species:S:1:pos:R:3:forces:R:3 energy=477.1909556636956 pbc="F F F"
F        0.00000000       0.00000000       0.00000000       0.00000000       0.00000000   -4954.94970703
F        0.00000000       0.00000000       0.21919192       0.00000000       0.00000000    4954.94970703
2
Properties=species:S:1:pos:R:3:forces:R:3 energy=281.5550914070711 pbc="F F F"
F        0.00000000       0.00000000       0.00000000       0.00000000       0.00000000   -2069.08007812
F        0.00000000       0.00000000       0.27878788       0.00000000       0.00000000    2069.08007812
2
Properties=species:S:1:pos:R:3:forces:R:3 energy=196.88144639031165 pbc="F F F"
F        0.00000000       0.00000000       0.00000000       0.00000000       0.00000000    -954.66339111
F        0.00000000       0.00000000       0.33838384       0.00000000       0.00000000     954.66339111
2
Properties=species:S:1:pos:R:3:forces:R:3 energy=151.13555101090512 pbc="F F F"
F        0.00000000       0.00000000       0.00000000       0.00000000       0.00000000    -681.67962646
F        0.00000000       0.00000000       0.39797980       0.00000000       0.00000000     681.67962646
2
Properties=species:S:1:pos:R:3:forces:R:3 energy=110.34568743873453 pbc="F F F"
F        0.00000000       0.00000000       0.00000000       0.00000000       0.00000000    -681.18383789
F        0.00000000       0.00000000       0.45757576       0.00000000       0.00000000     681.18383789
2
Properties=species:S:1:pos:R:3:forces:R:3 energy=74.31409414290711 pbc="F F F"
F        0.00000000       0.00000000       0.00000000       0.00000000       0.00000000    -488.69110107
F        0.00000000       0.00000000       0.51717172       0.00000000       0.00000000     488.69110107
2
Properties=species:S:1:pos:R:3:forces:R:3 energy=54.03632319472668 pbc="F F F"
F        0.00000000       0.00000000       0.00000000       0.00000000       0.00000000    -198.06602478
F        0.00000000       0.00000000       0.57676768       0.00000000       0.00000000     198.06602478
2
Properties=species:S:1:pos:R:3:forces:R:3 energy=47.04088946773712 pbc="F F F"
F        0.00000000       0.00000000       0.00000000       0.00000000       0.00000000     -66.56816864
F        0.00000000       0.00000000       0.63636364       0.00000000       0.00000000      66.56816864
2
Properties=species:S:1:pos:R:3:forces:R:3 energy=42.574489450341495 pbc="F F F"
F        0.00000000       0.00000000       0.00000000       0.00000000       0.00000000    -112.21883392
F        0.00000000       0.00000000       0.69595960       0.00000000       0.00000000     112.21883392
2
Properties=species:S:1:pos:R:3:forces:R:3 energy=32.37153630970733 pbc="F F F"
F        0.00000000       0.00000000       0.00000000       0.00000000       0.00000000    -214.45623779
F        0.00000000       0.00000000       0.75555556       0.00000000       0.00000000     214.45623779
2
Properties=species:S:1:pos:R:3:forces:R:3 energy=20.324945800053033 pbc="F F F"
F        0.00000000       0.00000000       0.00000000       0.00000000       0.00000000    -169.10905457
F        0.00000000       0.00000000       0.81515152       0.00000000       0.00000000     169.10905457
2
Properties=species:S:1:pos:R:3:forces:R:3 energy=12.902041258259372 pbc="F F F"
F        0.00000000       0.00000000       0.00000000       0.00000000       0.00000000     -87.32960510
F        0.00000000       0.00000000       0.87474747       0.00000000       0.00000000      87.32960510
2
Properties=species:S:1:pos:R:3:forces:R:3 energy=8.79086536896591 pbc="F F F"
F        0.00000000       0.00000000       0.00000000       0.00000000       0.00000000     -57.63699341
F        0.00000000       0.00000000       0.93434343       0.00000000       0.00000000      57.63699341
2
Properties=species:S:1:pos:R:3:forces:R:3 energy=5.617914977469249 pbc="F F F"
F        0.00000000       0.00000000       0.00000000       0.00000000       0.00000000     -50.39941788
F        0.00000000       0.00000000       0.99393939       0.00000000       0.00000000      50.39941788
2
Properties=species:S:1:pos:R:3:forces:R:3 energy=2.843686565626892 pbc="F F F"
F        0.00000000       0.00000000       0.00000000       0.00000000       0.00000000     -41.34571838
F        0.00000000       0.00000000       1.05353535       0.00000000       0.00000000      41.34571838
2
Properties=species:S:1:pos:R:3:forces:R:3 energy=0.7692816540343935 pbc="F F F"
F        0.00000000       0.00000000       0.00000000       0.00000000       0.00000000     -28.45890999
F        0.00000000       0.00000000       1.11313131       0.00000000       0.00000000      28.45890999
2
Properties=species:S:1:pos:R:3:forces:R:3 energy=-0.6255379999866842 pbc="F F F"
F        0.00000000       0.00000000       0.00000000       0.00000000       0.00000000     -19.05958176
F        0.00000000       0.00000000       1.17272727       0.00000000       0.00000000      19.05958176
2
Properties=species:S:1:pos:R:3:forces:R:3 energy=-1.5607975896900212 pbc="F F F"
F        0.00000000       0.00000000       0.00000000       0.00000000       0.00000000     -12.63007832
F        0.00000000       0.00000000       1.23232323       0.00000000       0.00000000      12.63007832
2
Properties=species:S:1:pos:R:3:forces:R:3 energy=-2.1585448260999094 pbc="F F F"
F        0.00000000       0.00000000       0.00000000       0.00000000       0.00000000      -7.63171101
F        0.00000000       0.00000000       1.29191919       0.00000000       0.00000000       7.63171101
2
Properties=species:S:1:pos:R:3:forces:R:3 energy=-2.492129596873842 pbc="F F F"
F        0.00000000       0.00000000       0.00000000       0.00000000       0.00000000      -3.72667718
F        0.00000000       0.00000000       1.35151515       0.00000000       0.00000000       3.72667718
2
Properties=species:S:1:pos:R:3:forces:R:3 energy=-2.621042798710449 pbc="F F F"
F        0.00000000       0.00000000       0.00000000       0.00000000       0.00000000      -0.74582458
F        0.00000000       0.00000000       1.41111111       0.00000000       0.00000000       0.74582458
2
Properties=species:S:1:pos:R:3:forces:R:3 energy=-2.5966450183186587 pbc="F F F"
F        0.00000000       0.00000000       0.00000000       0.00000000       0.00000000       1.45767617
F        0.00000000       0.00000000       1.47070707       0.00000000       0.00000000      -1.45767617
2
Properties=species:S:1:pos:R:3:forces:R:3 energy=-2.4563840909397396 pbc="F F F"
F        0.00000000       0.00000000       0.00000000       0.00000000       0.00000000       3.20012212
F        0.00000000       0.00000000       1.53030303       0.00000000       0.00000000      -3.20012212
2
Properties=species:S:1:pos:R:3:forces:R:3 energy=-2.2200926108956285 pbc="F F F"
F        0.00000000       0.00000000       0.00000000       0.00000000       0.00000000       4.67790508
F        0.00000000       0.00000000       1.58989899       0.00000000       0.00000000      -4.67790508
2
Properties=species:S:1:pos:R:3:forces:R:3 energy=-1.9097052547183817 pbc="F F F"
F        0.00000000       0.00000000       0.00000000       0.00000000       0.00000000       5.59582758
F        0.00000000       0.00000000       1.64949495       0.00000000       0.00000000      -5.59582758
2
Properties=species:S:1:pos:R:3:forces:R:3 energy=-1.5750835813940227 pbc="F F F"
F        0.00000000       0.00000000       0.00000000       0.00000000       0.00000000       5.43278694
F        0.00000000       0.00000000       1.70909091       0.00000000       0.00000000      -5.43278694
2
Properties=species:S:1:pos:R:3:forces:R:3 energy=-1.28258916193627 pbc="F F F"
F        0.00000000       0.00000000       0.00000000       0.00000000       0.00000000       4.26547337
F        0.00000000       0.00000000       1.76868687       0.00000000       0.00000000      -4.26547337
2
Properties=species:S:1:pos:R:3:forces:R:3 energy=-1.072888400210852 pbc="F F F"
F        0.00000000       0.00000000       0.00000000       0.00000000       0.00000000       2.77868629
F        0.00000000       0.00000000       1.82828283       0.00000000       0.00000000      -2.77868629
2
Properties=species:S:1:pos:R:3:forces:R:3 energy=-0.9460627517965774 pbc="F F F"
F        0.00000000       0.00000000       0.00000000       0.00000000       0.00000000       1.54477203
F        0.00000000       0.00000000       1.88787879       0.00000000       0.00000000      -1.54477203
2
Properties=species:S:1:pos:R:3:forces:R:3 energy=-0.8802353291545617 pbc="F F F"
F        0.00000000       0.00000000       0.00000000       0.00000000       0.00000000       0.73234063
F        0.00000000       0.00000000       1.94747475       0.00000000       0.00000000      -0.73234063
2
Properties=species:S:1:pos:R:3:forces:R:3 energy=-0.8518404567804961 pbc="F F F"
F        0.00000000       0.00000000       0.00000000       0.00000000       0.00000000       0.26758811
F        0.00000000       0.00000000       2.00707071       0.00000000       0.00000000      -0.26758811
2
Properties=species:S:1:pos:R:3:forces:R:3 energy=-0.844011835310486 pbc="F F F"
F        0.00000000       0.00000000       0.00000000       0.00000000       0.00000000       0.02191803
F        0.00000000       0.00000000       2.06666667       0.00000000       0.00000000      -0.02191803
2
Properties=species:S:1:pos:R:3:forces:R:3 energy=-0.8469190675752892 pbc="F F F"
F        0.00000000       0.00000000       0.00000000       0.00000000       0.00000000      -0.10607906
F        0.00000000       0.00000000       2.12626263       0.00000000       0.00000000       0.10607906
2
Properties=species:S:1:pos:R:3:forces:R:3 energy=-0.8555463654165208 pbc="F F F"
F        0.00000000       0.00000000       0.00000000       0.00000000       0.00000000      -0.17723373
F        0.00000000       0.00000000       2.18585859       0.00000000       0.00000000       0.17723373
2
Properties=species:S:1:pos:R:3:forces:R:3 energy=-0.8675381777433541 pbc="F F F"
F        0.00000000       0.00000000       0.00000000       0.00000000       0.00000000      -0.22239165
F        0.00000000       0.00000000       2.24545455       0.00000000       0.00000000       0.22239165
2
Properties=species:S:1:pos:R:3:forces:R:3 energy=-0.8818163418750019 pbc="F F F"
F        0.00000000       0.00000000       0.00000000       0.00000000       0.00000000      -0.25535348
F        0.00000000       0.00000000       2.30505051       0.00000000       0.00000000       0.25535348
2
Properties=species:S:1:pos:R:3:forces:R:3 energy=-0.8978470594316605 pbc="F F F"
F        0.00000000       0.00000000       0.00000000       0.00000000       0.00000000      -0.28176621
F        0.00000000       0.00000000       2.36464646       0.00000000       0.00000000       0.28176621
2
Properties=species:S:1:pos:R:3:forces:R:3 energy=-0.9153154802966321 pbc="F F F"
F        0.00000000       0.00000000       0.00000000       0.00000000       0.00000000      -0.30383429
F        0.00000000       0.00000000       2.42424242       0.00000000       0.00000000       0.30383429
2
Properties=species:S:1:pos:R:3:forces:R:3 energy=-0.9339914325465765 pbc="F F F"
F        0.00000000       0.00000000       0.00000000       0.00000000       0.00000000      -0.32237720
F        0.00000000       0.00000000       2.48383838       0.00000000       0.00000000       0.32237720
2
Properties=species:S:1:pos:R:3:forces:R:3 energy=-0.9536733283331316 pbc="F F F"
F        0.00000000       0.00000000       0.00000000       0.00000000       0.00000000      -0.33757213
F        0.00000000       0.00000000       2.54343434       0.00000000       0.00000000       0.33757213
2
Properties=species:S:1:pos:R:3:forces:R:3 energy=-0.9741572130251854 pbc="F F F"
F        0.00000000       0.00000000       0.00000000       0.00000000       0.00000000      -0.34922364
F        0.00000000       0.00000000       2.60303030       0.00000000       0.00000000       0.34922364
2
Properties=species:S:1:pos:R:3:forces:R:3 energy=-0.9952198640202694 pbc="F F F"
F        0.00000000       0.00000000       0.00000000       0.00000000       0.00000000      -0.35693258
F        0.00000000       0.00000000       2.66262626       0.00000000       0.00000000       0.35693258
2
Properties=species:S:1:pos:R:3:forces:R:3 energy=-1.01661410177651 pbc="F F F"
F        0.00000000       0.00000000       0.00000000       0.00000000       0.00000000      -0.36026981
F        0.00000000       0.00000000       2.72222222       0.00000000       0.00000000       0.36026981
2
Properties=species:S:1:pos:R:3:forces:R:3 energy=-1.038068385647382 pbc="F F F"
F        0.00000000       0.00000000       0.00000000       0.00000000       0.00000000      -0.35897022
F        0.00000000       0.00000000       2.78181818       0.00000000       0.00000000       0.35897022
2
Properties=species:S:1:pos:R:3:forces:R:3 energy=-1.059307678675201 pbc="F F F"
F        0.00000000       0.00000000       0.00000000       0.00000000       0.00000000      -0.35304528
F        0.00000000       0.00000000       2.84141414       0.00000000       0.00000000       0.35304528
2
Properties=species:S:1:pos:R:3:forces:R:3 energy=-1.0800635657295592 pbc="F F F"
F        0.00000000       0.00000000       0.00000000       0.00000000       0.00000000      -0.34282452
F        0.00000000       0.00000000       2.90101010       0.00000000       0.00000000       0.34282452
2
Properties=species:S:1:pos:R:3:forces:R:3 energy=-1.1000958169254884 pbc="F F F"
F        0.00000000       0.00000000       0.00000000       0.00000000       0.00000000      -0.32888177
F        0.00000000       0.00000000       2.96060606       0.00000000       0.00000000       0.32888177
2
Properties=species:S:1:pos:R:3:forces:R:3 energy=-1.1192039176624158 pbc="F F F"
F        0.00000000       0.00000000       0.00000000       0.00000000       0.00000000      -0.31193554
F        0.00000000       0.00000000       3.02020202       0.00000000       0.00000000       0.31193554
2
Properties=species:S:1:pos:R:3:forces:R:3 energy=-1.1372316773967217 pbc="F F F"
F        0.00000000       0.00000000       0.00000000       0.00000000       0.00000000      -0.29271752
F        0.00000000       0.00000000       3.07979798       0.00000000       0.00000000       0.29271752
2
Properties=species:S:1:pos:R:3:forces:R:3 energy=-1.1540619416674027 pbc="F F F"
F        0.00000000       0.00000000       0.00000000       0.00000000       0.00000000      -0.27190498
F        0.00000000       0.00000000       3.13939394       0.00000000       0.00000000       0.27190498
2
Properties=species:S:1:pos:R:3:forces:R:3 energy=-1.1696201220453575 pbc="F F F"
F        0.00000000       0.00000000       0.00000000       0.00000000       0.00000000      -0.25007173
F        0.00000000       0.00000000       3.19898990       0.00000000       0.00000000       0.25007173
2
Properties=species:S:1:pos:R:3:forces:R:3 energy=-1.1838576906064975 pbc="F F F"
F        0.00000000       0.00000000       0.00000000       0.00000000       0.00000000      -0.22769323
F        0.00000000       0.00000000       3.25858586       0.00000000       0.00000000       0.22769323
2
Properties=species:S:1:pos:R:3:forces:R:3 energy=-1.1967553631425547 pbc="F F F"
F        0.00000000       0.00000000       0.00000000       0.00000000       0.00000000      -0.20516120
F        0.00000000       0.00000000       3.31818182       0.00000000       0.00000000       0.20516120
2
Properties=species:S:1:pos:R:3:forces:R:3 energy=-1.208314711349236 pbc="F F F"
F        0.00000000       0.00000000       0.00000000       0.00000000       0.00000000      -0.18280123
F        0.00000000       0.00000000       3.37777778       0.00000000       0.00000000       0.18280123
2
Properties=species:S:1:pos:R:3:forces:R:3 energy=-1.2185528950467504 pbc="F F F"
F        0.00000000       0.00000000       0.00000000       0.00000000       0.00000000      -0.16088751
F        0.00000000       0.00000000       3.43737374       0.00000000       0.00000000       0.16088751
2
Properties=species:S:1:pos:R:3:forces:R:3 energy=-1.2275040697245723 pbc="F F F"
F        0.00000000       0.00000000       0.00000000       0.00000000       0.00000000      -0.13963017
F        0.00000000       0.00000000       3.49696970       0.00000000       0.00000000       0.13963017
2
Properties=species:S:1:pos:R:3:forces:R:3 energy=-1.2352117555630002 pbc="F F F"
F        0.00000000       0.00000000       0.00000000       0.00000000       0.00000000      -0.11917195
F        0.00000000       0.00000000       3.55656566       0.00000000       0.00000000       0.11917195
2
Properties=species:S:1:pos:R:3:forces:R:3 energy=-1.2417256140306054 pbc="F F F"
F        0.00000000       0.00000000       0.00000000       0.00000000       0.00000000      -0.09956556
F        0.00000000       0.00000000       3.61616162       0.00000000       0.00000000       0.09956556
2
Properties=species:S:1:pos:R:3:forces:R:3 energy=-1.247095380089797 pbc="F F F"
F        0.00000000       0.00000000       0.00000000       0.00000000       0.00000000      -0.08078778
F        0.00000000       0.00000000       3.67575758       0.00000000       0.00000000       0.08078778
2
Properties=species:S:1:pos:R:3:forces:R:3 energy=-1.251369679607394 pbc="F F F"
F        0.00000000       0.00000000       0.00000000       0.00000000       0.00000000      -0.06276000
F        0.00000000       0.00000000       3.73535354       0.00000000       0.00000000       0.06276000
2
Properties=species:S:1:pos:R:3:forces:R:3 energy=-1.254589376403132 pbc="F F F"
F        0.00000000       0.00000000       0.00000000       0.00000000       0.00000000      -0.04539697
F        0.00000000       0.00000000       3.79494949       0.00000000       0.00000000       0.04539697
2
Properties=species:S:1:pos:R:3:forces:R:3 energy=-1.2567928335944965 pbc="F F F"
F        0.00000000       0.00000000       0.00000000       0.00000000       0.00000000      -0.02865066
F        0.00000000       0.00000000       3.85454545       0.00000000       0.00000000       0.02865066
2
Properties=species:S:1:pos:R:3:forces:R:3 energy=-1.2580171250925303 pbc="F F F"
F        0.00000000       0.00000000       0.00000000       0.00000000       0.00000000      -0.01254641
F        0.00000000       0.00000000       3.91414141       0.00000000       0.00000000       0.01254641
2
Properties=species:S:1:pos:R:3:forces:R:3 energy=-1.2583031804102276 pbc="F F F"
F        0.00000000       0.00000000       0.00000000       0.00000000       0.00000000       0.00281544
F        0.00000000       0.00000000       3.97373737       0.00000000       0.00000000      -0.00281544
2
Properties=species:S:1:pos:R:3:forces:R:3 energy=-1.2576991415295742 pbc="F F F"
F        0.00000000       0.00000000       0.00000000       0.00000000       0.00000000       0.01728340
F        0.00000000       0.00000000       4.03333333       0.00000000       0.00000000      -0.01728340
2
Properties=species:S:1:pos:R:3:forces:R:3 energy=-1.2562639554153228 pbc="F F F"
F        0.00000000       0.00000000       0.00000000       0.00000000       0.00000000       0.03070129
F        0.00000000       0.00000000       4.09292929       0.00000000       0.00000000      -0.03070129
2
Properties=species:S:1:pos:R:3:forces:R:3 energy=-1.2540635709000767 pbc="F F F"
F        0.00000000       0.00000000       0.00000000       0.00000000       0.00000000       0.04293295
F        0.00000000       0.00000000       4.15252525       0.00000000       0.00000000      -0.04293295
2
Properties=species:S:1:pos:R:3:forces:R:3 energy=-1.25117190512889 pbc="F F F"
F        0.00000000       0.00000000       0.00000000       0.00000000       0.00000000       0.05389195
F        0.00000000       0.00000000       4.21212121       0.00000000       0.00000000      -0.05389195
2
Properties=species:S:1:pos:R:3:forces:R:3 energy=-1.247666323010736 pbc="F F F"
F        0.00000000       0.00000000       0.00000000       0.00000000       0.00000000       0.06352455
F        0.00000000       0.00000000       4.27171717       0.00000000       0.00000000      -0.06352455
2
Properties=species:S:1:pos:R:3:forces:R:3 energy=-1.2436271682019102 pbc="F F F"
F        0.00000000       0.00000000       0.00000000       0.00000000       0.00000000       0.07180212
F        0.00000000       0.00000000       4.33131313       0.00000000       0.00000000      -0.07180212
2
Properties=species:S:1:pos:R:3:forces:R:3 energy=-1.2391356236744626 pbc="F F F"
F        0.00000000       0.00000000       0.00000000       0.00000000       0.00000000       0.07870860
F        0.00000000       0.00000000       4.39090909       0.00000000       0.00000000      -0.07870860
2
Properties=species:S:1:pos:R:3:forces:R:3 energy=-1.2342725232860965 pbc="F F F"
F        0.00000000       0.00000000       0.00000000       0.00000000       0.00000000       0.08427078
F        0.00000000       0.00000000       4.45050505       0.00000000       0.00000000      -0.08427078
2
Properties=species:S:1:pos:R:3:forces:R:3 energy=-1.2291157344720012 pbc="F F F"
F        0.00000000       0.00000000       0.00000000       0.00000000       0.00000000       0.08860715
F        0.00000000       0.00000000       4.51010101       0.00000000       0.00000000      -0.08860715
2
Properties=species:S:1:pos:R:3:forces:R:3 energy=-1.2237305004610008 pbc="F F F"
F        0.00000000       0.00000000       0.00000000       0.00000000       0.00000000       0.09198292
F        0.00000000       0.00000000       4.56969697       0.00000000       0.00000000      -0.09198292
2
Properties=species:S:1:pos:R:3:forces:R:3 energy=-1.218162294845782 pbc="F F F"
F        0.00000000       0.00000000       0.00000000       0.00000000       0.00000000       0.09483782
F        0.00000000       0.00000000       4.62929293       0.00000000       0.00000000      -0.09483782
2
Properties=species:S:1:pos:R:3:forces:R:3 energy=-1.2124253737788042 pbc="F F F"
F        0.00000000       0.00000000       0.00000000       0.00000000       0.00000000       0.09776903
F        0.00000000       0.00000000       4.68888889       0.00000000       0.00000000      -0.09776903
2
Properties=species:S:1:pos:R:3:forces:R:3 energy=-1.2064945543426076 pbc="F F F"
F        0.00000000       0.00000000       0.00000000       0.00000000       0.00000000       0.10142225
F        0.00000000       0.00000000       4.74848485       0.00000000       0.00000000      -0.10142225
2
Properties=species:S:1:pos:R:3:forces:R:3 energy=-1.200311886062764 pbc="F F F"
F        0.00000000       0.00000000       0.00000000       0.00000000       0.00000000       0.10630549
F        0.00000000       0.00000000       4.80808081       0.00000000       0.00000000      -0.10630549
2
Properties=species:S:1:pos:R:3:forces:R:3 energy=-1.1937966688934514 pbc="F F F"
F        0.00000000       0.00000000       0.00000000       0.00000000       0.00000000       0.11252744
F        0.00000000       0.00000000       4.86767677       0.00000000       0.00000000      -0.11252744
2
Properties=species:S:1:pos:R:3:forces:R:3 energy=-1.1868828815190653 pbc="F F F"
F        0.00000000       0.00000000       0.00000000       0.00000000       0.00000000       0.11955018
F        0.00000000       0.00000000       4.92727273       0.00000000       0.00000000      -0.11955018
2
Properties=species:S:1:pos:R:3:forces:R:3 energy=-1.1795578049165463 pbc="F F F"
F        0.00000000       0.00000000       0.00000000       0.00000000       0.00000000       0.12603472
F        0.00000000       0.00000000       4.98686869       0.00000000       0.00000000      -0.12603472
2
Properties=species:S:1:pos:R:3:forces:R:3 energy=-1.1719092291845457 pbc="F F F"
F        0.00000000       0.00000000       0.00000000       0.00000000       0.00000000       0.13012426
F        0.00000000       0.00000000       5.04646465       0.00000000       0.00000000      -0.13012426
2
Properties=species:S:1:pos:R:3:forces:R:3 energy=-1.164122947821975 pbc="F F F"
F        0.00000000       0.00000000       0.00000000       0.00000000       0.00000000       0.13056687
F        0.00000000       0.00000000       5.10606061       0.00000000       0.00000000      -0.13056687
2
Properties=species:S:1:pos:R:3:forces:R:3 energy=-1.1563895370535222 pbc="F F F"
F        0.00000000       0.00000000       0.00000000       0.00000000       0.00000000       0.12894543
F        0.00000000       0.00000000       5.16565657       0.00000000       0.00000000      -0.12894543
2
Properties=species:S:1:pos:R:3:forces:R:3 energy=-1.1486751144849503 pbc="F F F"
F        0.00000000       0.00000000       0.00000000       0.00000000       0.00000000       0.13129744
F        0.00000000       0.00000000       5.22525253       0.00000000       0.00000000      -0.13129744
2
Properties=species:S:1:pos:R:3:forces:R:3 energy=-1.1405224964984624 pbc="F F F"
F        0.00000000       0.00000000       0.00000000       0.00000000       0.00000000       0.14430177
F        0.00000000       0.00000000       5.28484848       0.00000000       0.00000000      -0.14430177
2
Properties=species:S:1:pos:R:3:forces:R:3 energy=-1.1313083333832235 pbc="F F F"
F        0.00000000       0.00000000       0.00000000       0.00000000       0.00000000       0.16525553
F        0.00000000       0.00000000       5.34444444       0.00000000       0.00000000      -0.16525553
2
Properties=species:S:1:pos:R:3:forces:R:3 energy=-1.120941077721042 pbc="F F F"
F        0.00000000       0.00000000       0.00000000       0.00000000       0.00000000       0.18054822
F        0.00000000       0.00000000       5.40404040       0.00000000       0.00000000      -0.18054822
2
Properties=species:S:1:pos:R:3:forces:R:3 energy=-1.110078421858277 pbc="F F F"
F        0.00000000       0.00000000       0.00000000       0.00000000       0.00000000       0.18173392
F        0.00000000       0.00000000       5.46363636       0.00000000       0.00000000      -0.18173392
2
Properties=species:S:1:pos:R:3:forces:R:3 energy=-1.0994211011588406 pbc="F F F"
F        0.00000000       0.00000000       0.00000000       0.00000000       0.00000000       0.17626071
F        0.00000000       0.00000000       5.52323232       0.00000000       0.00000000      -0.17626071
2
Properties=species:S:1:pos:R:3:forces:R:3 energy=-1.0889135954084006 pbc="F F F"
F        0.00000000       0.00000000       0.00000000       0.00000000       0.00000000       0.17843166
F        0.00000000       0.00000000       5.58282828       0.00000000       0.00000000      -0.17843166
2
Properties=species:S:1:pos:R:3:forces:R:3 energy=-1.0779268752693423 pbc="F F F"
F        0.00000000       0.00000000       0.00000000       0.00000000       0.00000000       0.19122975
F        0.00000000       0.00000000       5.64242424       0.00000000       0.00000000      -0.19122975
2
Properties=species:S:1:pos:R:3:forces:R:3 energy=-1.0662434288383134 pbc="F F F"
F        0.00000000       0.00000000       0.00000000       0.00000000       0.00000000       0.19730373
F        0.00000000       0.00000000       5.70202020       0.00000000       0.00000000      -0.19730373
2
Properties=species:S:1:pos:R:3:forces:R:3 energy=-1.0549960339228617 pbc="F F F"
F        0.00000000       0.00000000       0.00000000       0.00000000       0.00000000       0.17505084
F        0.00000000       0.00000000       5.76161616       0.00000000       0.00000000      -0.17505084
2
Properties=species:S:1:pos:R:3:forces:R:3 energy=-1.0459750320926484 pbc="F F F"
F        0.00000000       0.00000000       0.00000000       0.00000000       0.00000000       0.12382253
F        0.00000000       0.00000000       5.82121212       0.00000000       0.00000000      -0.12382253
2
Properties=species:S:1:pos:R:3:forces:R:3 energy=-1.0404342093002636 pbc="F F F"
F        0.00000000       0.00000000       0.00000000       0.00000000       0.00000000       0.06340173
F        0.00000000       0.00000000       5.88080808       0.00000000       0.00000000      -0.06340173
2
Properties=species:S:1:pos:R:3:forces:R:3 energy=-1.0381179279658788 pbc="F F F"
F        0.00000000       0.00000000       0.00000000       0.00000000       0.00000000       0.01729451
F        0.00000000       0.00000000       5.94040404       0.00000000       0.00000000      -0.01729451
2
Properties=species:S:1:pos:R:3:forces:R:3 energy=-1.0377739652418982 pbc="F F F"
F        0.00000000       0.00000000       0.00000000       0.00000000       0.00000000       0.00013400
F        0.00000000       0.00000000       6.00000000       0.00000000       0.00000000      -0.00013400
