2
Properties=species:S:1:pos:R:3:forces:R:3 energy=747.4909129390862 pbc="F F F"
F        0.00000000       0.00000000       0.00000000       0.00000000       0.00000000   -9395.23437500
F        0.00000000       0.00000000       0.18000000       0.00000000       0.00000000    9395.23437500
2
Properties=species:S:1:pos:R:3:forces:R:3 energy=393.24469711916976 pbc="F F F"
F        0.00000000       0.00000000       0.00000000       0.00000000       0.00000000   -3683.99804688
F        0.00000000       0.00000000       0.23878788       0.00000000       0.00000000    3683.99804688
2
Properties=species:S:1:pos:R:3:forces:R:3 energy=247.34992172973267 pbc="F F F"
F        0.00000000       0.00000000       0.00000000       0.00000000       0.00000000   -1595.13793945
F        0.00000000       0.00000000       0.29757576       0.00000000       0.00000000    1595.13793945
2
Properties=species:S:1:pos:R:3:forces:R:3 energy=181.17569687978084 pbc="F F F"
F        0.00000000       0.00000000       0.00000000       0.00000000       0.00000000    -804.26715088
F        0.00000000       0.00000000       0.35636364       0.00000000       0.00000000     804.26715088
2
Properties=species:S:1:pos:R:3:forces:R:3 energy=139.4401317025495 pbc="F F F"
F        0.00000000       0.00000000       0.00000000       0.00000000       0.00000000    -682.49920654
F        0.00000000       0.00000000       0.41515152       0.00000000       0.00000000     682.49920654
2
Properties=species:S:1:pos:R:3:forces:R:3 energy=99.37927203900479 pbc="F F F"
F        0.00000000       0.00000000       0.00000000       0.00000000       0.00000000    -654.74365234
F        0.00000000       0.00000000       0.47393939       0.00000000       0.00000000     654.74365234
2
Properties=species:S:1:pos:R:3:forces:R:3 energy=67.3030696777089 pbc="F F F"
F        0.00000000       0.00000000       0.00000000       0.00000000       0.00000000    -411.88632202
F        0.00000000       0.00000000       0.53272727       0.00000000       0.00000000     411.88632202
2
Properties=species:S:1:pos:R:3:forces:R:3 energy=51.51911892629379 pbc="F F F"
F        0.00000000       0.00000000       0.00000000       0.00000000       0.00000000    -145.98710632
F        0.00000000       0.00000000       0.59151515       0.00000000       0.00000000     145.98710632
2
Properties=species:S:1:pos:R:3:forces:R:3 energy=46.17189764127305 pbc="F F F"
F        0.00000000       0.00000000       0.00000000       0.00000000       0.00000000     -60.18552780
F        0.00000000       0.00000000       0.65030303       0.00000000       0.00000000      60.18552780
2
Properties=species:S:1:pos:R:3:forces:R:3 energy=40.92679585313422 pbc="F F F"
F        0.00000000       0.00000000       0.00000000       0.00000000       0.00000000    -139.24011230
F        0.00000000       0.00000000       0.70909091       0.00000000       0.00000000     139.24011230
2
Properties=species:S:1:pos:R:3:forces:R:3 energy=29.70909701566292 pbc="F F F"
F        0.00000000       0.00000000       0.00000000       0.00000000       0.00000000    -216.39947510
F        0.00000000       0.00000000       0.76787879       0.00000000       0.00000000     216.39947510
2
Properties=species:S:1:pos:R:3:forces:R:3 energy=18.483179513907157 pbc="F F F"
F        0.00000000       0.00000000       0.00000000       0.00000000       0.00000000    -150.70420837
F        0.00000000       0.00000000       0.82666667       0.00000000       0.00000000     150.70420837
2
Properties=species:S:1:pos:R:3:forces:R:3 energy=12.01601401558952 pbc="F F F"
F        0.00000000       0.00000000       0.00000000       0.00000000       0.00000000     -78.49735260
F        0.00000000       0.00000000       0.88545455       0.00000000       0.00000000      78.49735260
2
Properties=species:S:1:pos:R:3:forces:R:3 energy=8.230579921501826 pbc="F F F"
F        0.00000000       0.00000000       0.00000000       0.00000000       0.00000000     -55.63112259
F        0.00000000       0.00000000       0.94424242       0.00000000       0.00000000      55.63112259
2
Properties=species:S:1:pos:R:3:forces:R:3 energy=5.163439247875634 pbc="F F F"
F        0.00000000       0.00000000       0.00000000       0.00000000       0.00000000     -49.55879211
F        0.00000000       0.00000000       1.00303030       0.00000000       0.00000000      49.55879211
2
Properties=species:S:1:pos:R:3:forces:R:3 energy=2.5086008821090386 pbc="F F F"
F        0.00000000       0.00000000       0.00000000       0.00000000       0.00000000     -39.55625153
F        0.00000000       0.00000000       1.06181818       0.00000000       0.00000000      39.55625153
2
Properties=species:S:1:pos:R:3:forces:R:3 energy=0.5619326854992233 pbc="F F F"
F        0.00000000       0.00000000       0.00000000       0.00000000       0.00000000     -27.03337288
F        0.00000000       0.00000000       1.12060606       0.00000000       0.00000000      27.03337288
2
Properties=species:S:1:pos:R:3:forces:R:3 energy=-0.7498549351532762 pbc="F F F"
F        0.00000000       0.00000000       0.00000000       0.00000000       0.00000000     -18.23900986
F        0.00000000       0.00000000       1.17939394       0.00000000       0.00000000      18.23900986
2
Properties=species:S:1:pos:R:3:forces:R:3 energy=-1.6331840929495882 pbc="F F F"
F        0.00000000       0.00000000       0.00000000       0.00000000       0.00000000     -12.08377361
F        0.00000000       0.00000000       1.23818182       0.00000000       0.00000000      12.08377361
2
Properties=species:S:1:pos:R:3:forces:R:3 energy=-2.196148238885836 pbc="F F F"
F        0.00000000       0.00000000       0.00000000       0.00000000       0.00000000      -7.26172352
F        0.00000000       0.00000000       1.29696970       0.00000000       0.00000000       7.26172352
2
Properties=species:S:1:pos:R:3:forces:R:3 energy=-2.5074259424262206 pbc="F F F"
F        0.00000000       0.00000000       0.00000000       0.00000000       0.00000000      -3.48502707
F        0.00000000       0.00000000       1.35575758       0.00000000       0.00000000       3.48502707
2
Properties=species:S:1:pos:R:3:forces:R:3 energy=-2.6233529226465175 pbc="F F F"
F        0.00000000       0.00000000       0.00000000       0.00000000       0.00000000      -0.60003561
F        0.00000000       0.00000000       1.41454545       0.00000000       0.00000000       0.60003561
2
Properties=species:S:1:pos:R:3:forces:R:3 energy=-2.592705387657771 pbc="F F F"
F        0.00000000       0.00000000       0.00000000       0.00000000       0.00000000       1.54157865
F        0.00000000       0.00000000       1.47333333       0.00000000       0.00000000      -1.54157865
2
Properties=species:S:1:pos:R:3:forces:R:3 energy=-2.4505192218171863 pbc="F F F"
F        0.00000000       0.00000000       0.00000000       0.00000000       0.00000000       3.24921036
F        0.00000000       0.00000000       1.53212121       0.00000000       0.00000000      -3.24921036
2
Properties=species:S:1:pos:R:3:forces:R:3 energy=-2.2153565771615615 pbc="F F F"
F        0.00000000       0.00000000       0.00000000       0.00000000       0.00000000       4.69970512
F        0.00000000       0.00000000       1.59090909       0.00000000       0.00000000      -4.69970512
2
Properties=species:S:1:pos:R:3:forces:R:3 energy=-1.908577969522915 pbc="F F F"
F        0.00000000       0.00000000       0.00000000       0.00000000       0.00000000       5.59729719
F        0.00000000       0.00000000       1.64969697       0.00000000       0.00000000      -5.59729719
2
Properties=species:S:1:pos:R:3:forces:R:3 energy=-1.578378931645735 pbc="F F F"
F        0.00000000       0.00000000       0.00000000       0.00000000       0.00000000       5.44036627
F        0.00000000       0.00000000       1.70848485       0.00000000       0.00000000      -5.44036627
2
Properties=species:S:1:pos:R:3:forces:R:3 energy=-1.2886464480665873 pbc="F F F"
F        0.00000000       0.00000000       0.00000000       0.00000000       0.00000000       4.29988337
F        0.00000000       0.00000000       1.76727273       0.00000000       0.00000000      -4.29988337
2
Properties=species:S:1:pos:R:3:forces:R:3 energy=-1.07912364638393 pbc="F F F"
F        0.00000000       0.00000000       0.00000000       0.00000000       0.00000000       2.83185959
F        0.00000000       0.00000000       1.82606061       0.00000000       0.00000000      -2.83185959
2
Properties=species:S:1:pos:R:3:forces:R:3 energy=-0.9508240356253679 pbc="F F F"
F        0.00000000       0.00000000       0.00000000       0.00000000       0.00000000       1.59736741
F        0.00000000       0.00000000       1.88484848       0.00000000       0.00000000      -1.59736741
2
Properties=species:S:1:pos:R:3:forces:R:3 energy=-0.8831223550721293 pbc="F F F"
F        0.00000000       0.00000000       0.00000000       0.00000000       0.00000000       0.77282608
F        0.00000000       0.00000000       1.94363636       0.00000000       0.00000000      -0.77282608
2
Properties=species:S:1:pos:R:3:forces:R:3 energy=-0.8531464460409692 pbc="F F F"
F        0.00000000       0.00000000       0.00000000       0.00000000       0.00000000       0.29436496
F        0.00000000       0.00000000       2.00242424       0.00000000       0.00000000      -0.29436496
2
Properties=species:S:1:pos:R:3:forces:R:3 energy=-0.8441755054418586 pbc="F F F"
F        0.00000000       0.00000000       0.00000000       0.00000000       0.00000000       0.03828395
F        0.00000000       0.00000000       2.06121212       0.00000000       0.00000000      -0.03828395
2
Properties=species:S:1:pos:R:3:forces:R:3 energy=-0.846286085107545 pbc="F F F"
F        0.00000000       0.00000000       0.00000000       0.00000000       0.00000000      -0.09606149
F        0.00000000       0.00000000       2.12000000       0.00000000       0.00000000       0.09606149
2
Properties=species:S:1:pos:R:3:forces:R:3 energy=-0.854316880538966 pbc="F F F"
F        0.00000000       0.00000000       0.00000000       0.00000000       0.00000000      -0.17055193
F        0.00000000       0.00000000       2.17878788       0.00000000       0.00000000       0.17055193
2
Properties=species:S:1:pos:R:3:forces:R:3 energy=-0.8658059394147691 pbc="F F F"
F        0.00000000       0.00000000       0.00000000       0.00000000       0.00000000      -0.21730885
F        0.00000000       0.00000000       2.23757576       0.00000000       0.00000000       0.21730885
2
Properties=species:S:1:pos:R:3:forces:R:3 energy=-0.8796166041189305 pbc="F F F"
F        0.00000000       0.00000000       0.00000000       0.00000000       0.00000000      -0.25103736
F        0.00000000       0.00000000       2.29636364       0.00000000       0.00000000       0.25103736
2
Properties=species:S:1:pos:R:3:forces:R:3 energy=-0.8951891128011681 pbc="F F F"
F        0.00000000       0.00000000       0.00000000       0.00000000       0.00000000      -0.27788287
F        0.00000000       0.00000000       2.35515152       0.00000000       0.00000000       0.27788287
2
Properties=species:S:1:pos:R:3:forces:R:3 energy=-0.9122027192366844 pbc="F F F"
F        0.00000000       0.00000000       0.00000000       0.00000000       0.00000000      -0.30028322
F        0.00000000       0.00000000       2.41393939       0.00000000       0.00000000       0.30028322
2
Properties=species:S:1:pos:R:3:forces:R:3 energy=-0.9304276667547638 pbc="F F F"
F        0.00000000       0.00000000       0.00000000       0.00000000       0.00000000      -0.31917351
F        0.00000000       0.00000000       2.47272727       0.00000000       0.00000000       0.31917351
2
Properties=species:S:1:pos:R:3:forces:R:3 energy=-0.9496668133047811 pbc="F F F"
F        0.00000000       0.00000000       0.00000000       0.00000000       0.00000000      -0.33480683
F        0.00000000       0.00000000       2.53151515       0.00000000       0.00000000       0.33480683
2
Properties=species:S:1:pos:R:3:forces:R:3 energy=-0.9697266713104161 pbc="F F F"
F        0.00000000       0.00000000       0.00000000       0.00000000       0.00000000      -0.34705165
F        0.00000000       0.00000000       2.59030303       0.00000000       0.00000000       0.34705165
2
Properties=species:S:1:pos:R:3:forces:R:3 energy=-0.9903970860495853 pbc="F F F"
F        0.00000000       0.00000000       0.00000000       0.00000000       0.00000000      -0.35554984
F        0.00000000       0.00000000       2.64909091       0.00000000       0.00000000       0.35554984
2
Properties=species:S:1:pos:R:3:forces:R:3 energy=-1.0114482851205358 pbc="F F F"
F        0.00000000       0.00000000       0.00000000       0.00000000       0.00000000      -0.35988569
F        0.00000000       0.00000000       2.70787879       0.00000000       0.00000000       0.35988569
2
Properties=species:S:1:pos:R:3:forces:R:3 energy=-1.0326238573690725 pbc="F F F"
F        0.00000000       0.00000000       0.00000000       0.00000000       0.00000000      -0.35974607
F        0.00000000       0.00000000       2.76666667       0.00000000       0.00000000       0.35974607
2
Properties=species:S:1:pos:R:3:forces:R:3 energy=-1.0536570297083152 pbc="F F F"
F        0.00000000       0.00000000       0.00000000       0.00000000       0.00000000      -0.35507363
F        0.00000000       0.00000000       2.82545455       0.00000000       0.00000000       0.35507363
2
Properties=species:S:1:pos:R:3:forces:R:3 energy=-1.0742870540402563 pbc="F F F"
F        0.00000000       0.00000000       0.00000000       0.00000000       0.00000000      -0.34610450
F        0.00000000       0.00000000       2.88424242       0.00000000       0.00000000       0.34610450
2
Properties=species:S:1:pos:R:3:forces:R:3 energy=-1.0942758731936095 pbc="F F F"
F        0.00000000       0.00000000       0.00000000       0.00000000       0.00000000      -0.33334041
F        0.00000000       0.00000000       2.94303030       0.00000000       0.00000000       0.33334041
2
Properties=species:S:1:pos:R:3:forces:R:3 energy=-1.1134184766888675 pbc="F F F"
F        0.00000000       0.00000000       0.00000000       0.00000000       0.00000000      -0.31743771
F        0.00000000       0.00000000       3.00181818       0.00000000       0.00000000       0.31743771
2
Properties=species:S:1:pos:R:3:forces:R:3 energy=-1.1315513210403063 pbc="F F F"
F        0.00000000       0.00000000       0.00000000       0.00000000       0.00000000      -0.29911208
F        0.00000000       0.00000000       3.06060606       0.00000000       0.00000000       0.29911208
2
Properties=species:S:1:pos:R:3:forces:R:3 energy=-1.1485521753046737 pbc="F F F"
F        0.00000000       0.00000000       0.00000000       0.00000000       0.00000000      -0.27902851
F        0.00000000       0.00000000       3.11939394       0.00000000       0.00000000       0.27902851
2
Properties=species:S:1:pos:R:3:forces:R:3 energy=-1.1643360244077898 pbc="F F F"
F        0.00000000       0.00000000       0.00000000       0.00000000       0.00000000      -0.25777864
F        0.00000000       0.00000000       3.17818182       0.00000000       0.00000000       0.25777864
2
Properties=species:S:1:pos:R:3:forces:R:3 energy=-1.1788479847153324 pbc="F F F"
F        0.00000000       0.00000000       0.00000000       0.00000000       0.00000000      -0.23584664
F        0.00000000       0.00000000       3.23696970       0.00000000       0.00000000       0.23584664
2
Properties=species:S:1:pos:R:3:forces:R:3 energy=-1.192060405589987 pbc="F F F"
F        0.00000000       0.00000000       0.00000000       0.00000000       0.00000000      -0.21363457
F        0.00000000       0.00000000       3.29575758       0.00000000       0.00000000       0.21363457
2
Properties=species:S:1:pos:R:3:forces:R:3 energy=-1.2039672311148295 pbc="F F F"
F        0.00000000       0.00000000       0.00000000       0.00000000       0.00000000      -0.19147860
F        0.00000000       0.00000000       3.35454545       0.00000000       0.00000000       0.19147860
2
Properties=species:S:1:pos:R:3:forces:R:3 energy=-1.2145805044160958 pbc="F F F"
F        0.00000000       0.00000000       0.00000000       0.00000000       0.00000000      -0.16965814
F        0.00000000       0.00000000       3.41333333       0.00000000       0.00000000       0.16965814
2
Properties=species:S:1:pos:R:3:forces:R:3 energy=-1.2239257145411109 pbc="F F F"
F        0.00000000       0.00000000       0.00000000       0.00000000       0.00000000      -0.14840250
F        0.00000000       0.00000000       3.47212121       0.00000000       0.00000000       0.14840250
2
Properties=species:S:1:pos:R:3:forces:R:3 energy=-1.2320430808339877 pbc="F F F"
F        0.00000000       0.00000000       0.00000000       0.00000000       0.00000000      -0.12787700
F        0.00000000       0.00000000       3.53090909       0.00000000       0.00000000       0.12787700
2
Properties=species:S:1:pos:R:3:forces:R:3 energy=-1.2389771868751451 pbc="F F F"
F        0.00000000       0.00000000       0.00000000       0.00000000       0.00000000      -0.10816765
F        0.00000000       0.00000000       3.58969697       0.00000000       0.00000000       0.10816765
2
Properties=species:S:1:pos:R:3:forces:R:3 energy=-1.2447766281991404 pbc="F F F"
F        0.00000000       0.00000000       0.00000000       0.00000000       0.00000000      -0.08928305
F        0.00000000       0.00000000       3.64848485       0.00000000       0.00000000       0.08928305
2
Properties=species:S:1:pos:R:3:forces:R:3 energy=-1.2494898496709896 pbc="F F F"
F        0.00000000       0.00000000       0.00000000       0.00000000       0.00000000      -0.07116700
F        0.00000000       0.00000000       3.70727273       0.00000000       0.00000000       0.07116700
2
Properties=species:S:1:pos:R:3:forces:R:3 energy=-1.2531577679734607 pbc="F F F"
F        0.00000000       0.00000000       0.00000000       0.00000000       0.00000000      -0.05373464
F        0.00000000       0.00000000       3.76606061       0.00000000       0.00000000       0.05373464
2
Properties=species:S:1:pos:R:3:forces:R:3 energy=-1.2558195136498473 pbc="F F F"
F        0.00000000       0.00000000       0.00000000       0.00000000       0.00000000      -0.03691892
F        0.00000000       0.00000000       3.82484848       0.00000000       0.00000000       0.03691892
2
Properties=species:S:1:pos:R:3:forces:R:3 energy=-1.2575104180092924 pbc="F F F"
F        0.00000000       0.00000000       0.00000000       0.00000000       0.00000000      -0.02070479
F        0.00000000       0.00000000       3.88363636       0.00000000       0.00000000       0.02070479
2
Properties=species:S:1:pos:R:3:forces:R:3 energy=-1.258267165755743 pbc="F F F"
F        0.00000000       0.00000000       0.00000000       0.00000000       0.00000000      -0.00515502
F        0.00000000       0.00000000       3.94242424       0.00000000       0.00000000       0.00515502
2
Properties=species:S:1:pos:R:3:forces:R:3 energy=-1.2581320952338848 pbc="F F F"
F        0.00000000       0.00000000       0.00000000       0.00000000       0.00000000       0.00960694
F        0.00000000       0.00000000       4.00121212       0.00000000       0.00000000      -0.00960694
2
Properties=species:S:1:pos:R:3:forces:R:3 energy=-1.2571559588537573 pbc="F F F"
F        0.00000000       0.00000000       0.00000000       0.00000000       0.00000000       0.02342587
F        0.00000000       0.00000000       4.06000000       0.00000000       0.00000000      -0.02342587
2
Properties=species:S:1:pos:R:3:forces:R:3 energy=-1.2553988929011648 pbc="F F F"
F        0.00000000       0.00000000       0.00000000       0.00000000       0.00000000       0.03615908
F        0.00000000       0.00000000       4.11878788       0.00000000       0.00000000      -0.03615908
2
Properties=species:S:1:pos:R:3:forces:R:3 energy=-1.252927803941799 pbc="F F F"
F        0.00000000       0.00000000       0.00000000       0.00000000       0.00000000       0.04769785
F        0.00000000       0.00000000       4.17757576       0.00000000       0.00000000      -0.04769785
2
Properties=species:S:1:pos:R:3:forces:R:3 energy=-1.2498154264322903 pbc="F F F"
F        0.00000000       0.00000000       0.00000000       0.00000000       0.00000000       0.05797238
F        0.00000000       0.00000000       4.23636364       0.00000000       0.00000000      -0.05797238
2
Properties=species:S:1:pos:R:3:forces:R:3 energy=-1.246137229713318 pbc="F F F"
F        0.00000000       0.00000000       0.00000000       0.00000000       0.00000000       0.06694275
F        0.00000000       0.00000000       4.29515152       0.00000000       0.00000000      -0.06694275
2
Properties=species:S:1:pos:R:3:forces:R:3 energy=-1.2419707145342112 pbc="F F F"
F        0.00000000       0.00000000       0.00000000       0.00000000       0.00000000       0.07458519
F        0.00000000       0.00000000       4.35393939       0.00000000       0.00000000      -0.07458519
2
Properties=species:S:1:pos:R:3:forces:R:3 energy=-1.2373939803635965 pbc="F F F"
F        0.00000000       0.00000000       0.00000000       0.00000000       0.00000000       0.08089639
F        0.00000000       0.00000000       4.41272727       0.00000000       0.00000000      -0.08089639
2
Properties=species:S:1:pos:R:3:forces:R:3 energy=-1.2324844213138078 pbc="F F F"
F        0.00000000       0.00000000       0.00000000       0.00000000       0.00000000       0.08592981
F        0.00000000       0.00000000       4.47151515       0.00000000       0.00000000      -0.08592981
2
Properties=species:S:1:pos:R:3:forces:R:3 energy=-1.227312890280895 pbc="F F F"
F        0.00000000       0.00000000       0.00000000       0.00000000       0.00000000       0.08984113
F        0.00000000       0.00000000       4.53030303       0.00000000       0.00000000      -0.08984113
2
Properties=species:S:1:pos:R:3:forces:R:3 energy=-1.2219371392658762 pbc="F F F"
F        0.00000000       0.00000000       0.00000000       0.00000000       0.00000000       0.09294219
F        0.00000000       0.00000000       4.58909091       0.00000000       0.00000000      -0.09294219
2
Properties=species:S:1:pos:R:3:forces:R:3 energy=-1.2163919290129808 pbc="F F F"
F        0.00000000       0.00000000       0.00000000       0.00000000       0.00000000       0.09571288
F        0.00000000       0.00000000       4.64787879       0.00000000       0.00000000      -0.09571288
2
Properties=species:S:1:pos:R:3:forces:R:3 energy=-1.2106783016585054 pbc="F F F"
F        0.00000000       0.00000000       0.00000000       0.00000000       0.00000000       0.09875540
F        0.00000000       0.00000000       4.70666667       0.00000000       0.00000000      -0.09875540
2
Properties=species:S:1:pos:R:3:forces:R:3 energy=-1.2047632210735602 pbc="F F F"
F        0.00000000       0.00000000       0.00000000       0.00000000       0.00000000       0.10267328
F        0.00000000       0.00000000       4.76545455       0.00000000       0.00000000      -0.10267328
2
Properties=species:S:1:pos:R:3:forces:R:3 energy=-1.198580885453181 pbc="F F F"
F        0.00000000       0.00000000       0.00000000       0.00000000       0.00000000       0.10786914
F        0.00000000       0.00000000       4.82424242       0.00000000       0.00000000      -0.10786914
2
Properties=species:S:1:pos:R:3:forces:R:3 energy=-1.1920560918421097 pbc="F F F"
F        0.00000000       0.00000000       0.00000000       0.00000000       0.00000000       0.11429887
F        0.00000000       0.00000000       4.88303030       0.00000000       0.00000000      -0.11429887
2
Properties=species:S:1:pos:R:3:forces:R:3 energy=-1.18513153382467 pbc="F F F"
F        0.00000000       0.00000000       0.00000000       0.00000000       0.00000000       0.12124813
F        0.00000000       0.00000000       4.94181818       0.00000000       0.00000000      -0.12124813
2
Properties=species:S:1:pos:R:3:forces:R:3 energy=-1.1778175114025329 pbc="F F F"
F        0.00000000       0.00000000       0.00000000       0.00000000       0.00000000       0.12725852
F        0.00000000       0.00000000       5.00060606       0.00000000       0.00000000      -0.12725852
2
Properties=species:S:1:pos:R:3:forces:R:3 energy=-1.1702225680048688 pbc="F F F"
F        0.00000000       0.00000000       0.00000000       0.00000000       0.00000000       0.13053758
F        0.00000000       0.00000000       5.05939394       0.00000000       0.00000000      -0.13053758
2
Properties=species:S:1:pos:R:3:forces:R:3 energy=-1.1625409714093122 pbc="F F F"
F        0.00000000       0.00000000       0.00000000       0.00000000       0.00000000       0.13027307
F        0.00000000       0.00000000       5.11818182       0.00000000       0.00000000      -0.13027307
2
Properties=species:S:1:pos:R:3:forces:R:3 energy=-1.154932311815047 pbc="F F F"
F        0.00000000       0.00000000       0.00000000       0.00000000       0.00000000       0.12883848
F        0.00000000       0.00000000       5.17696970       0.00000000       0.00000000      -0.12883848
2
Properties=species:S:1:pos:R:3:forces:R:3 energy=-1.1472896396261372 pbc="F F F"
F        0.00000000       0.00000000       0.00000000       0.00000000       0.00000000       0.13270761
F        0.00000000       0.00000000       5.23575758       0.00000000       0.00000000      -0.13270761
2
Properties=species:S:1:pos:R:3:forces:R:3 energy=-1.139109048929597 pbc="F F F"
F        0.00000000       0.00000000       0.00000000       0.00000000       0.00000000       0.14744307
F        0.00000000       0.00000000       5.29454545       0.00000000       0.00000000      -0.14744307
2
Properties=species:S:1:pos:R:3:forces:R:3 energy=-1.1298269205755296 pbc="F F F"
F        0.00000000       0.00000000       0.00000000       0.00000000       0.00000000       0.16825154
F        0.00000000       0.00000000       5.35333333       0.00000000       0.00000000      -0.16825154
2
Properties=species:S:1:pos:R:3:forces:R:3 energy=-1.1194789091498751 pbc="F F F"
F        0.00000000       0.00000000       0.00000000       0.00000000       0.00000000       0.18152773
F        0.00000000       0.00000000       5.41212121       0.00000000       0.00000000      -0.18152773
2
Properties=species:S:1:pos:R:3:forces:R:3 energy=-1.1087631245908334 pbc="F F F"
F        0.00000000       0.00000000       0.00000000       0.00000000       0.00000000       0.18112318
F        0.00000000       0.00000000       5.47090909       0.00000000       0.00000000      -0.18112318
2
Properties=species:S:1:pos:R:3:forces:R:3 energy=-1.0982802906181048 pbc="F F F"
F        0.00000000       0.00000000       0.00000000       0.00000000       0.00000000       0.17592505
F        0.00000000       0.00000000       5.52969697       0.00000000       0.00000000      -0.17592505
2
Properties=species:S:1:pos:R:3:forces:R:3 energy=-1.0879013387217398 pbc="F F F"
F        0.00000000       0.00000000       0.00000000       0.00000000       0.00000000       0.17931896
F        0.00000000       0.00000000       5.58848485       0.00000000       0.00000000      -0.17931896
2
Properties=species:S:1:pos:R:3:forces:R:3 energy=-1.076994144626842 pbc="F F F"
F        0.00000000       0.00000000       0.00000000       0.00000000       0.00000000       0.19231191
F        0.00000000       0.00000000       5.64727273       0.00000000       0.00000000      -0.19231191
2
Properties=species:S:1:pos:R:3:forces:R:3 energy=-1.0654599322111402 pbc="F F F"
F        0.00000000       0.00000000       0.00000000       0.00000000       0.00000000       0.19678399
F        0.00000000       0.00000000       5.70606061       0.00000000       0.00000000      -0.19678399
2
Properties=species:S:1:pos:R:3:forces:R:3 energy=-1.0544094283725822 pbc="F F F"
F        0.00000000       0.00000000       0.00000000       0.00000000       0.00000000       0.17297496
F        0.00000000       0.00000000       5.76484848       0.00000000       0.00000000      -0.17297496
2
Properties=species:S:1:pos:R:3:forces:R:3 energy=-1.0456739860917432 pbc="F F F"
F        0.00000000       0.00000000       0.00000000       0.00000000       0.00000000       0.12138066
F        0.00000000       0.00000000       5.82363636       0.00000000       0.00000000      -0.12138066
2
Properties=species:S:1:pos:R:3:forces:R:3 energy=-1.0403202348649991 pbc="F F F"
F        0.00000000       0.00000000       0.00000000       0.00000000       0.00000000       0.06189081
F        0.00000000       0.00000000       5.88242424       0.00000000       0.00000000      -0.06189081
2
Properties=species:S:1:pos:R:3:forces:R:3 energy=-1.0381080367455264 pbc="F F F"
F        0.00000000       0.00000000       0.00000000       0.00000000       0.00000000       0.01679084
F        0.00000000       0.00000000       5.94121212       0.00000000       0.00000000      -0.01679084
2
Properties=species:S:1:pos:R:3:forces:R:3 energy=-1.0377739652418982 pbc="F F F"
F        0.00000000       0.00000000       0.00000000       0.00000000       0.00000000       0.00013400
F        0.00000000       0.00000000       6.00000000       0.00000000       0.00000000      -0.00013400
