2
Properties=species:S:1:pos:R:3:forces:R:3 energy=3430.5176055355882 pbc="F F F"
Fe       0.00000000       0.00000000       0.00000000       0.00000000       0.00000000  -52625.09375000
Fe       0.00000000       0.00000000       0.18000000       0.00000000       0.00000000   52625.09375000
2
Properties=species:S:1:pos:R:3:forces:R:3 energy=1513.3033721371507 pbc="F F F"
Fe       0.00000000       0.00000000       0.00000000       0.00000000       0.00000000  -19213.64062500
Fe       0.00000000       0.00000000       0.23878788       0.00000000       0.00000000   19213.64062500
2
Properties=species:S:1:pos:R:3:forces:R:3 energy=758.9567534879749 pbc="F F F"
Fe       0.00000000       0.00000000       0.00000000       0.00000000       0.00000000   -8248.81933594
Fe       0.00000000       0.00000000       0.29757576       0.00000000       0.00000000    8248.81933594
2
Properties=species:S:1:pos:R:3:forces:R:3 energy=418.9420134977405 pbc="F F F"
Fe       0.00000000       0.00000000       0.00000000       0.00000000       0.00000000   -3927.83081055
Fe       0.00000000       0.00000000       0.35636364       0.00000000       0.00000000    3927.83081055
2
Properties=species:S:1:pos:R:3:forces:R:3 energy=251.72036433415428 pbc="F F F"
Fe       0.00000000       0.00000000       0.00000000       0.00000000       0.00000000   -2001.85729980
Fe       0.00000000       0.00000000       0.41515152       0.00000000       0.00000000    2001.85729980
2
Properties=species:S:1:pos:R:3:forces:R:3 energy=164.63557125600525 pbc="F F F"
Fe       0.00000000       0.00000000       0.00000000       0.00000000       0.00000000   -1066.94165039
Fe       0.00000000       0.00000000       0.47393939       0.00000000       0.00000000    1066.94165039
2
Properties=species:S:1:pos:R:3:forces:R:3 energy=117.5939224102661 pbc="F F F"
Fe       0.00000000       0.00000000       0.00000000       0.00000000       0.00000000    -584.11553955
Fe       0.00000000       0.00000000       0.53272727       0.00000000       0.00000000     584.11553955
2
Properties=species:S:1:pos:R:3:forces:R:3 energy=91.68170625542089 pbc="F F F"
Fe       0.00000000       0.00000000       0.00000000       0.00000000       0.00000000    -323.27819824
Fe       0.00000000       0.00000000       0.59151515       0.00000000       0.00000000     323.27819824
2
Properties=species:S:1:pos:R:3:forces:R:3 energy=77.33132637176185 pbc="F F F"
Fe       0.00000000       0.00000000       0.00000000       0.00000000       0.00000000    -179.15383911
Fe       0.00000000       0.00000000       0.65030303       0.00000000       0.00000000     179.15383911
2
Properties=species:S:1:pos:R:3:forces:R:3 energy=69.31154344360917 pbc="F F F"
Fe       0.00000000       0.00000000       0.00000000       0.00000000       0.00000000    -102.50079346
Fe       0.00000000       0.00000000       0.70909091       0.00000000       0.00000000     102.50079346
2
Properties=species:S:1:pos:R:3:forces:R:3 energy=64.41264068992693 pbc="F F F"
Fe       0.00000000       0.00000000       0.00000000       0.00000000       0.00000000     -70.46897125
Fe       0.00000000       0.00000000       0.76787879       0.00000000       0.00000000      70.46897125
2
Properties=species:S:1:pos:R:3:forces:R:3 energy=60.37333425204255 pbc="F F F"
Fe       0.00000000       0.00000000       0.00000000       0.00000000       0.00000000     -71.76830292
Fe       0.00000000       0.00000000       0.82666667       0.00000000       0.00000000      71.76830292
2
Properties=species:S:1:pos:R:3:forces:R:3 energy=55.51665271975172 pbc="F F F"
Fe       0.00000000       0.00000000       0.00000000       0.00000000       0.00000000     -96.24658203
Fe       0.00000000       0.00000000       0.88545455       0.00000000       0.00000000      96.24658203
2
Properties=species:S:1:pos:R:3:forces:R:3 energy=48.88080031784789 pbc="F F F"
Fe       0.00000000       0.00000000       0.00000000       0.00000000       0.00000000    -129.69274902
Fe       0.00000000       0.00000000       0.94424242       0.00000000       0.00000000     129.69274902
2
Properties=species:S:1:pos:R:3:forces:R:3 energy=40.38531748328273 pbc="F F F"
Fe       0.00000000       0.00000000       0.00000000       0.00000000       0.00000000    -157.33314514
Fe       0.00000000       0.00000000       1.00303030       0.00000000       0.00000000     157.33314514
2
Properties=species:S:1:pos:R:3:forces:R:3 energy=30.703042471465324 pbc="F F F"
Fe       0.00000000       0.00000000       0.00000000       0.00000000       0.00000000    -168.69828796
Fe       0.00000000       0.00000000       1.06181818       0.00000000       0.00000000     168.69828796
2
Properties=species:S:1:pos:R:3:forces:R:3 energy=21.015255475524857 pbc="F F F"
Fe       0.00000000       0.00000000       0.00000000       0.00000000       0.00000000    -156.51005554
Fe       0.00000000       0.00000000       1.12060606       0.00000000       0.00000000     156.51005554
2
Properties=species:S:1:pos:R:3:forces:R:3 energy=12.751623068479349 pbc="F F F"
Fe       0.00000000       0.00000000       0.00000000       0.00000000       0.00000000    -122.26096344
Fe       0.00000000       0.00000000       1.17939394       0.00000000       0.00000000     122.26096344
2
Properties=species:S:1:pos:R:3:forces:R:3 energy=6.68687172669862 pbc="F F F"
Fe       0.00000000       0.00000000       0.00000000       0.00000000       0.00000000     -85.28099823
Fe       0.00000000       0.00000000       1.23818182       0.00000000       0.00000000      85.28099823
2
Properties=species:S:1:pos:R:3:forces:R:3 energy=2.4933915135090863 pbc="F F F"
Fe       0.00000000       0.00000000       0.00000000       0.00000000       0.00000000     -59.54428864
Fe       0.00000000       0.00000000       1.29696970       0.00000000       0.00000000      59.54428864
2
Properties=species:S:1:pos:R:3:forces:R:3 energy=-0.5213766992961926 pbc="F F F"
Fe       0.00000000       0.00000000       0.00000000       0.00000000       0.00000000     -44.22003937
Fe       0.00000000       0.00000000       1.35575758       0.00000000       0.00000000      44.22003937
2
Properties=species:S:1:pos:R:3:forces:R:3 energy=-2.7889294273573073 pbc="F F F"
Fe       0.00000000       0.00000000       0.00000000       0.00000000       0.00000000     -33.29998016
Fe       0.00000000       0.00000000       1.41454545       0.00000000       0.00000000      33.29998016
2
Properties=species:S:1:pos:R:3:forces:R:3 energy=-4.469243964187936 pbc="F F F"
Fe       0.00000000       0.00000000       0.00000000       0.00000000       0.00000000     -24.14163780
Fe       0.00000000       0.00000000       1.47333333       0.00000000       0.00000000      24.14163780
2
Properties=species:S:1:pos:R:3:forces:R:3 energy=-5.666655484814498 pbc="F F F"
Fe       0.00000000       0.00000000       0.00000000       0.00000000       0.00000000     -16.98361588
Fe       0.00000000       0.00000000       1.53212121       0.00000000       0.00000000      16.98361588
2
Properties=species:S:1:pos:R:3:forces:R:3 energy=-6.51416042800282 pbc="F F F"
Fe       0.00000000       0.00000000       0.00000000       0.00000000       0.00000000     -12.24581814
Fe       0.00000000       0.00000000       1.59090909       0.00000000       0.00000000      12.24581814
2
Properties=species:S:1:pos:R:3:forces:R:3 energy=-7.14659251143186 pbc="F F F"
Fe       0.00000000       0.00000000       0.00000000       0.00000000       0.00000000      -9.53625488
Fe       0.00000000       0.00000000       1.64969697       0.00000000       0.00000000       9.53625488
2
Properties=species:S:1:pos:R:3:forces:R:3 energy=-7.656991784761673 pbc="F F F"
Fe       0.00000000       0.00000000       0.00000000       0.00000000       0.00000000      -7.93727303
Fe       0.00000000       0.00000000       1.70848485       0.00000000       0.00000000       7.93727303
2
Properties=species:S:1:pos:R:3:forces:R:3 energy=-8.08663933024137 pbc="F F F"
Fe       0.00000000       0.00000000       0.00000000       0.00000000       0.00000000      -6.70327854
Fe       0.00000000       0.00000000       1.76727273       0.00000000       0.00000000       6.70327854
2
Properties=species:S:1:pos:R:3:forces:R:3 energy=-8.446256736178631 pbc="F F F"
Fe       0.00000000       0.00000000       0.00000000       0.00000000       0.00000000      -5.53485394
Fe       0.00000000       0.00000000       1.82606061       0.00000000       0.00000000       5.53485394
2
Properties=species:S:1:pos:R:3:forces:R:3 energy=-8.737824720452492 pbc="F F F"
Fe       0.00000000       0.00000000       0.00000000       0.00000000       0.00000000      -4.38830614
Fe       0.00000000       0.00000000       1.88484848       0.00000000       0.00000000       4.38830614
2
Properties=species:S:1:pos:R:3:forces:R:3 energy=-8.962612350505983 pbc="F F F"
Fe       0.00000000       0.00000000       0.00000000       0.00000000       0.00000000      -3.26161098
Fe       0.00000000       0.00000000       1.94363636       0.00000000       0.00000000       3.26161098
2
Properties=species:S:1:pos:R:3:forces:R:3 energy=-9.121589192049907 pbc="F F F"
Fe       0.00000000       0.00000000       0.00000000       0.00000000       0.00000000      -2.15038776
Fe       0.00000000       0.00000000       2.00242424       0.00000000       0.00000000       2.15038776
2
Properties=species:S:1:pos:R:3:forces:R:3 energy=-9.216269323184433 pbc="F F F"
Fe       0.00000000       0.00000000       0.00000000       0.00000000       0.00000000      -1.08262980
Fe       0.00000000       0.00000000       2.06121212       0.00000000       0.00000000       1.08262980
2
Properties=species:S:1:pos:R:3:forces:R:3 energy=-9.251016665685421 pbc="F F F"
Fe       0.00000000       0.00000000       0.00000000       0.00000000       0.00000000      -0.12417819
Fe       0.00000000       0.00000000       2.12000000       0.00000000       0.00000000       0.12417819
2
Properties=species:S:1:pos:R:3:forces:R:3 energy=-9.234475704596184 pbc="F F F"
Fe       0.00000000       0.00000000       0.00000000       0.00000000       0.00000000       0.65117794
Fe       0.00000000       0.00000000       2.17878788       0.00000000       0.00000000      -0.65117794
2
Properties=species:S:1:pos:R:3:forces:R:3 energy=-9.179042406139947 pbc="F F F"
Fe       0.00000000       0.00000000       0.00000000       0.00000000       0.00000000       1.19385719
Fe       0.00000000       0.00000000       2.23757576       0.00000000       0.00000000      -1.19385719
2
Properties=species:S:1:pos:R:3:forces:R:3 energy=-9.098838241848336 pbc="F F F"
Fe       0.00000000       0.00000000       0.00000000       0.00000000       0.00000000       1.49665046
Fe       0.00000000       0.00000000       2.29636364       0.00000000       0.00000000      -1.49665046
2
Properties=species:S:1:pos:R:3:forces:R:3 energy=-9.007061737493954 pbc="F F F"
Fe       0.00000000       0.00000000       0.00000000       0.00000000       0.00000000       1.59693813
Fe       0.00000000       0.00000000       2.35515152       0.00000000       0.00000000      -1.59693813
2
Properties=species:S:1:pos:R:3:forces:R:3 energy=-8.913734682342746 pbc="F F F"
Fe       0.00000000       0.00000000       0.00000000       0.00000000       0.00000000       1.56161857
Fe       0.00000000       0.00000000       2.41393939       0.00000000       0.00000000      -1.56161857
2
Properties=species:S:1:pos:R:3:forces:R:3 energy=-8.82472679793333 pbc="F F F"
Fe       0.00000000       0.00000000       0.00000000       0.00000000       0.00000000       1.46077704
Fe       0.00000000       0.00000000       2.47272727       0.00000000       0.00000000      -1.46077704
2
Properties=species:S:1:pos:R:3:forces:R:3 energy=-8.742078216983609 pbc="F F F"
Fe       0.00000000       0.00000000       0.00000000       0.00000000       0.00000000       1.35558057
Fe       0.00000000       0.00000000       2.53151515       0.00000000       0.00000000      -1.35558057
2
Properties=species:S:1:pos:R:3:forces:R:3 energy=-8.664069243842786 pbc="F F F"
Fe       0.00000000       0.00000000       0.00000000       0.00000000       0.00000000       1.31450796
Fe       0.00000000       0.00000000       2.59030303       0.00000000       0.00000000      -1.31450796
2
Properties=species:S:1:pos:R:3:forces:R:3 energy=-8.585648522835951 pbc="F F F"
Fe       0.00000000       0.00000000       0.00000000       0.00000000       0.00000000       1.36444783
Fe       0.00000000       0.00000000       2.64909091       0.00000000       0.00000000      -1.36444783
2
Properties=species:S:1:pos:R:3:forces:R:3 energy=-8.503240149455962 pbc="F F F"
Fe       0.00000000       0.00000000       0.00000000       0.00000000       0.00000000       1.43653738
Fe       0.00000000       0.00000000       2.70787879       0.00000000       0.00000000      -1.43653738
2
Properties=species:S:1:pos:R:3:forces:R:3 energy=-8.417313080476701 pbc="F F F"
Fe       0.00000000       0.00000000       0.00000000       0.00000000       0.00000000       1.48137999
Fe       0.00000000       0.00000000       2.76666667       0.00000000       0.00000000      -1.48137999
2
Properties=species:S:1:pos:R:3:forces:R:3 energy=-8.329661076504665 pbc="F F F"
Fe       0.00000000       0.00000000       0.00000000       0.00000000       0.00000000       1.49594533
Fe       0.00000000       0.00000000       2.82545455       0.00000000       0.00000000      -1.49594533
2
Properties=species:S:1:pos:R:3:forces:R:3 energy=-8.241932018254111 pbc="F F F"
Fe       0.00000000       0.00000000       0.00000000       0.00000000       0.00000000       1.48466372
Fe       0.00000000       0.00000000       2.88424242       0.00000000       0.00000000      -1.48466372
2
Properties=species:S:1:pos:R:3:forces:R:3 energy=-8.155536582446496 pbc="F F F"
Fe       0.00000000       0.00000000       0.00000000       0.00000000       0.00000000       1.45114911
Fe       0.00000000       0.00000000       2.94303030       0.00000000       0.00000000      -1.45114911
2
Properties=species:S:1:pos:R:3:forces:R:3 energy=-8.071661758659 pbc="F F F"
Fe       0.00000000       0.00000000       0.00000000       0.00000000       0.00000000       1.39975929
Fe       0.00000000       0.00000000       3.00181818       0.00000000       0.00000000      -1.39975929
2
Properties=species:S:1:pos:R:3:forces:R:3 energy=-7.991217174602406 pbc="F F F"
Fe       0.00000000       0.00000000       0.00000000       0.00000000       0.00000000       1.33522153
Fe       0.00000000       0.00000000       3.06060606       0.00000000       0.00000000      -1.33522153
2
Properties=species:S:1:pos:R:3:forces:R:3 energy=-7.914856951856034 pbc="F F F"
Fe       0.00000000       0.00000000       0.00000000       0.00000000       0.00000000       1.26122582
Fe       0.00000000       0.00000000       3.11939394       0.00000000       0.00000000      -1.26122582
2
Properties=species:S:1:pos:R:3:forces:R:3 energy=-7.8430697344654465 pbc="F F F"
Fe       0.00000000       0.00000000       0.00000000       0.00000000       0.00000000       1.17988360
Fe       0.00000000       0.00000000       3.17818182       0.00000000       0.00000000      -1.17988360
2
Properties=species:S:1:pos:R:3:forces:R:3 energy=-7.77625160803822 pbc="F F F"
Fe       0.00000000       0.00000000       0.00000000       0.00000000       0.00000000       1.09238875
Fe       0.00000000       0.00000000       3.23696970       0.00000000       0.00000000      -1.09238875
2
Properties=species:S:1:pos:R:3:forces:R:3 energy=-7.714726727126968 pbc="F F F"
Fe       0.00000000       0.00000000       0.00000000       0.00000000       0.00000000       1.00008857
Fe       0.00000000       0.00000000       3.29575758       0.00000000       0.00000000      -1.00008857
2
Properties=species:S:1:pos:R:3:forces:R:3 energy=-7.658716236786845 pbc="F F F"
Fe       0.00000000       0.00000000       0.00000000       0.00000000       0.00000000       0.90522915
Fe       0.00000000       0.00000000       3.35454545       0.00000000       0.00000000      -0.90522915
2
Properties=species:S:1:pos:R:3:forces:R:3 energy=-7.608280803362596 pbc="F F F"
Fe       0.00000000       0.00000000       0.00000000       0.00000000       0.00000000       0.81104612
Fe       0.00000000       0.00000000       3.41333333       0.00000000       0.00000000      -0.81104612
2
Properties=species:S:1:pos:R:3:forces:R:3 energy=-7.563268740608619 pbc="F F F"
Fe       0.00000000       0.00000000       0.00000000       0.00000000       0.00000000       0.72132981
Fe       0.00000000       0.00000000       3.47212121       0.00000000       0.00000000      -0.72132981
2
Properties=species:S:1:pos:R:3:forces:R:3 energy=-7.523309956525735 pbc="F F F"
Fe       0.00000000       0.00000000       0.00000000       0.00000000       0.00000000       0.63974404
Fe       0.00000000       0.00000000       3.53090909       0.00000000       0.00000000      -0.63974404
2
Properties=species:S:1:pos:R:3:forces:R:3 energy=-7.487834543674707 pbc="F F F"
Fe       0.00000000       0.00000000       0.00000000       0.00000000       0.00000000       0.56915796
Fe       0.00000000       0.00000000       3.58969697       0.00000000       0.00000000      -0.56915796
2
Properties=species:S:1:pos:R:3:forces:R:3 energy=-7.456142135976087 pbc="F F F"
Fe       0.00000000       0.00000000       0.00000000       0.00000000       0.00000000       0.51119918
Fe       0.00000000       0.00000000       3.64848485       0.00000000       0.00000000      -0.51119918
2
Properties=species:S:1:pos:R:3:forces:R:3 energy=-7.427477122268329 pbc="F F F"
Fe       0.00000000       0.00000000       0.00000000       0.00000000       0.00000000       0.46609724
Fe       0.00000000       0.00000000       3.70727273       0.00000000       0.00000000      -0.46609724
2
Properties=species:S:1:pos:R:3:forces:R:3 energy=-7.401107577864659 pbc="F F F"
Fe       0.00000000       0.00000000       0.00000000       0.00000000       0.00000000       0.43283936
Fe       0.00000000       0.00000000       3.76606061       0.00000000       0.00000000      -0.43283936
2
Properties=species:S:1:pos:R:3:forces:R:3 energy=-7.376390477202155 pbc="F F F"
Fe       0.00000000       0.00000000       0.00000000       0.00000000       0.00000000       0.40952471
Fe       0.00000000       0.00000000       3.82484848       0.00000000       0.00000000      -0.40952471
2
Properties=species:S:1:pos:R:3:forces:R:3 energy=-7.352809430501512 pbc="F F F"
Fe       0.00000000       0.00000000       0.00000000       0.00000000       0.00000000       0.39376986
Fe       0.00000000       0.00000000       3.88363636       0.00000000       0.00000000      -0.39376986
2
Properties=species:S:1:pos:R:3:forces:R:3 energy=-7.329993327933541 pbc="F F F"
Fe       0.00000000       0.00000000       0.00000000       0.00000000       0.00000000       0.38308871
Fe       0.00000000       0.00000000       3.94242424       0.00000000       0.00000000      -0.38308871
2
Properties=species:S:1:pos:R:3:forces:R:3 energy=-7.307714340403693 pbc="F F F"
Fe       0.00000000       0.00000000       0.00000000       0.00000000       0.00000000       0.37513947
Fe       0.00000000       0.00000000       4.00121212       0.00000000       0.00000000      -0.37513947
2
Properties=species:S:1:pos:R:3:forces:R:3 energy=-7.28587312809669 pbc="F F F"
Fe       0.00000000       0.00000000       0.00000000       0.00000000       0.00000000       0.36786714
Fe       0.00000000       0.00000000       4.06000000       0.00000000       0.00000000      -0.36786714
2
Properties=species:S:1:pos:R:3:forces:R:3 energy=-7.264482052973505 pbc="F F F"
Fe       0.00000000       0.00000000       0.00000000       0.00000000       0.00000000       0.35957366
Fe       0.00000000       0.00000000       4.11878788       0.00000000       0.00000000      -0.35957366
2
Properties=species:S:1:pos:R:3:forces:R:3 energy=-7.243641788408025 pbc="F F F"
Fe       0.00000000       0.00000000       0.00000000       0.00000000       0.00000000       0.34895399
Fe       0.00000000       0.00000000       4.17757576       0.00000000       0.00000000      -0.34895399
2
Properties=species:S:1:pos:R:3:forces:R:3 energy=-7.223516324082035 pbc="F F F"
Fe       0.00000000       0.00000000       0.00000000       0.00000000       0.00000000       0.33513638
Fe       0.00000000       0.00000000       4.23636364       0.00000000       0.00000000      -0.33513638
2
Properties=species:S:1:pos:R:3:forces:R:3 energy=-7.204308552255484 pbc="F F F"
Fe       0.00000000       0.00000000       0.00000000       0.00000000       0.00000000       0.31770813
Fe       0.00000000       0.00000000       4.29515152       0.00000000       0.00000000      -0.31770813
2
Properties=species:S:1:pos:R:3:forces:R:3 energy=-7.186232090024639 pbc="F F F"
Fe       0.00000000       0.00000000       0.00000000       0.00000000       0.00000000       0.29672042
Fe       0.00000000       0.00000000       4.35393939       0.00000000       0.00000000      -0.29672042
2
Properties=species:S:1:pos:R:3:forces:R:3 energy=-7.169482844986649 pbc="F F F"
Fe       0.00000000       0.00000000       0.00000000       0.00000000       0.00000000       0.27262983
Fe       0.00000000       0.00000000       4.41272727       0.00000000       0.00000000      -0.27262983
2
Properties=species:S:1:pos:R:3:forces:R:3 energy=-7.154222287925142 pbc="F F F"
Fe       0.00000000       0.00000000       0.00000000       0.00000000       0.00000000       0.24621503
Fe       0.00000000       0.00000000       4.47151515       0.00000000       0.00000000      -0.24621503
2
Properties=species:S:1:pos:R:3:forces:R:3 energy=-7.140560182134398 pbc="F F F"
Fe       0.00000000       0.00000000       0.00000000       0.00000000       0.00000000       0.21843739
Fe       0.00000000       0.00000000       4.53030303       0.00000000       0.00000000      -0.21843739
2
Properties=species:S:1:pos:R:3:forces:R:3 energy=-7.128546296621797 pbc="F F F"
Fe       0.00000000       0.00000000       0.00000000       0.00000000       0.00000000       0.19032107
Fe       0.00000000       0.00000000       4.58909091       0.00000000       0.00000000      -0.19032107
2
Properties=species:S:1:pos:R:3:forces:R:3 energy=-7.11817030156969 pbc="F F F"
Fe       0.00000000       0.00000000       0.00000000       0.00000000       0.00000000       0.16285604
Fe       0.00000000       0.00000000       4.64787879       0.00000000       0.00000000      -0.16285604
2
Properties=species:S:1:pos:R:3:forces:R:3 energy=-7.109367983057561 pbc="F F F"
Fe       0.00000000       0.00000000       0.00000000       0.00000000       0.00000000       0.13693540
Fe       0.00000000       0.00000000       4.70666667       0.00000000       0.00000000      -0.13693540
2
Properties=species:S:1:pos:R:3:forces:R:3 energy=-7.1020244003562825 pbc="F F F"
Fe       0.00000000       0.00000000       0.00000000       0.00000000       0.00000000       0.11333293
Fe       0.00000000       0.00000000       4.76545455       0.00000000       0.00000000      -0.11333293
2
Properties=species:S:1:pos:R:3:forces:R:3 energy=-7.095984910203539 pbc="F F F"
Fe       0.00000000       0.00000000       0.00000000       0.00000000       0.00000000       0.09265990
Fe       0.00000000       0.00000000       4.82424242       0.00000000       0.00000000      -0.09265990
2
Properties=species:S:1:pos:R:3:forces:R:3 energy=-7.091064659197492 pbc="F F F"
Fe       0.00000000       0.00000000       0.00000000       0.00000000       0.00000000       0.07531214
Fe       0.00000000       0.00000000       4.88303030       0.00000000       0.00000000      -0.07531214
2
Properties=species:S:1:pos:R:3:forces:R:3 energy=-7.08706331823135 pbc="F F F"
Fe       0.00000000       0.00000000       0.00000000       0.00000000       0.00000000       0.06138213
Fe       0.00000000       0.00000000       4.94181818       0.00000000       0.00000000      -0.06138213
2
Properties=species:S:1:pos:R:3:forces:R:3 energy=-7.08378518568174 pbc="F F F"
Fe       0.00000000       0.00000000       0.00000000       0.00000000       0.00000000       0.05063470
Fe       0.00000000       0.00000000       5.00060606       0.00000000       0.00000000      -0.05063470
2
Properties=species:S:1:pos:R:3:forces:R:3 energy=-7.081056410567204 pbc="F F F"
Fe       0.00000000       0.00000000       0.00000000       0.00000000       0.00000000       0.04260959
Fe       0.00000000       0.00000000       5.05939394       0.00000000       0.00000000      -0.04260959
2
Properties=species:S:1:pos:R:3:forces:R:3 energy=-7.078728762895957 pbc="F F F"
Fe       0.00000000       0.00000000       0.00000000       0.00000000       0.00000000       0.03696482
Fe       0.00000000       0.00000000       5.11818182       0.00000000       0.00000000      -0.03696482
2
Properties=species:S:1:pos:R:3:forces:R:3 energy=-7.0766597221307475 pbc="F F F"
Fe       0.00000000       0.00000000       0.00000000       0.00000000       0.00000000       0.03391368
Fe       0.00000000       0.00000000       5.17696970       0.00000000       0.00000000      -0.03391368
2
Properties=species:S:1:pos:R:3:forces:R:3 energy=-7.074676258155679 pbc="F F F"
Fe       0.00000000       0.00000000       0.00000000       0.00000000       0.00000000       0.03418037
Fe       0.00000000       0.00000000       5.23575758       0.00000000       0.00000000      -0.03418037
2
Properties=species:S:1:pos:R:3:forces:R:3 energy=-7.072572055784462 pbc="F F F"
Fe       0.00000000       0.00000000       0.00000000       0.00000000       0.00000000       0.03790651
Fe       0.00000000       0.00000000       5.29454545       0.00000000       0.00000000      -0.03790651
2
Properties=species:S:1:pos:R:3:forces:R:3 energy=-7.070181467285527 pbc="F F F"
Fe       0.00000000       0.00000000       0.00000000       0.00000000       0.00000000       0.04351331
Fe       0.00000000       0.00000000       5.35333333       0.00000000       0.00000000      -0.04351331
2
Properties=species:S:1:pos:R:3:forces:R:3 energy=-7.067466331590869 pbc="F F F"
Fe       0.00000000       0.00000000       0.00000000       0.00000000       0.00000000       0.04862435
Fe       0.00000000       0.00000000       5.41212121       0.00000000       0.00000000      -0.04862435
2
Properties=species:S:1:pos:R:3:forces:R:3 energy=-7.064501751544673 pbc="F F F"
Fe       0.00000000       0.00000000       0.00000000       0.00000000       0.00000000       0.05187140
Fe       0.00000000       0.00000000       5.47090909       0.00000000       0.00000000      -0.05187140
2
Properties=species:S:1:pos:R:3:forces:R:3 energy=-7.061412695152116 pbc="F F F"
Fe       0.00000000       0.00000000       0.00000000       0.00000000       0.00000000       0.05278669
Fe       0.00000000       0.00000000       5.52969697       0.00000000       0.00000000      -0.05278669
2
Properties=species:S:1:pos:R:3:forces:R:3 energy=-7.05835449435713 pbc="F F F"
Fe       0.00000000       0.00000000       0.00000000       0.00000000       0.00000000       0.05066164
Fe       0.00000000       0.00000000       5.58848485       0.00000000       0.00000000      -0.05066164
2
Properties=species:S:1:pos:R:3:forces:R:3 energy=-7.055539622367075 pbc="F F F"
Fe       0.00000000       0.00000000       0.00000000       0.00000000       0.00000000       0.04432960
Fe       0.00000000       0.00000000       5.64727273       0.00000000       0.00000000      -0.04432960
2
Properties=species:S:1:pos:R:3:forces:R:3 energy=-7.053224793706891 pbc="F F F"
Fe       0.00000000       0.00000000       0.00000000       0.00000000       0.00000000       0.03395988
Fe       0.00000000       0.00000000       5.70606061       0.00000000       0.00000000      -0.03395988
2
Properties=species:S:1:pos:R:3:forces:R:3 energy=-7.051560815159202 pbc="F F F"
Fe       0.00000000       0.00000000       0.00000000       0.00000000       0.00000000       0.02282891
Fe       0.00000000       0.00000000       5.76484848       0.00000000       0.00000000      -0.02282891
2
Properties=species:S:1:pos:R:3:forces:R:3 energy=-7.050474875886366 pbc="F F F"
Fe       0.00000000       0.00000000       0.00000000       0.00000000       0.00000000       0.01485029
Fe       0.00000000       0.00000000       5.82363636       0.00000000       0.00000000      -0.01485029
2
Properties=species:S:1:pos:R:3:forces:R:3 energy=-7.049736766022934 pbc="F F F"
Fe       0.00000000       0.00000000       0.00000000       0.00000000       0.00000000       0.01083278
Fe       0.00000000       0.00000000       5.88242424       0.00000000       0.00000000      -0.01083278
2
Properties=species:S:1:pos:R:3:forces:R:3 energy=-7.049155889617544 pbc="F F F"
Fe       0.00000000       0.00000000       0.00000000       0.00000000       0.00000000       0.00914591
Fe       0.00000000       0.00000000       5.94121212       0.00000000       0.00000000      -0.00914591
2
Properties=species:S:1:pos:R:3:forces:R:3 energy=-7.048644203178025 pbc="F F F"
Fe       0.00000000       0.00000000       0.00000000       0.00000000       0.00000000       0.00836448
Fe       0.00000000       0.00000000       6.00000000       0.00000000       0.00000000      -0.00836448
