2
Properties=species:S:1:pos:R:3:forces:R:3 energy=19703.115042360285 pbc="F F F"
Ga       0.00000000       0.00000000       0.00000000       0.00000000       0.00000000 -449992.18750000
Ga       0.00000000       0.00000000       0.10000000       0.00000000       0.00000000  449992.18750000
2
Properties=species:S:1:pos:R:3:forces:R:3 energy=6131.258108766533 pbc="F F F"
Ga       0.00000000       0.00000000       0.00000000       0.00000000       0.00000000 -104508.64062500
Ga       0.00000000       0.00000000       0.15959596       0.00000000       0.00000000  104508.64062500
2
Properties=species:S:1:pos:R:3:forces:R:3 energy=2453.4294954852835 pbc="F F F"
Ga       0.00000000       0.00000000       0.00000000       0.00000000       0.00000000  -34274.94140625
Ga       0.00000000       0.00000000       0.21919192       0.00000000       0.00000000   34274.94140625
2
Properties=species:S:1:pos:R:3:forces:R:3 energy=1133.2061068134085 pbc="F F F"
Ga       0.00000000       0.00000000       0.00000000       0.00000000       0.00000000  -13695.37890625
Ga       0.00000000       0.00000000       0.27878788       0.00000000       0.00000000   13695.37890625
2
Properties=species:S:1:pos:R:3:forces:R:3 energy=574.6542269337638 pbc="F F F"
Ga       0.00000000       0.00000000       0.00000000       0.00000000       0.00000000   -6184.58691406
Ga       0.00000000       0.00000000       0.33838384       0.00000000       0.00000000    6184.58691406
2
Properties=species:S:1:pos:R:3:forces:R:3 energy=312.83406702799005 pbc="F F F"
Ga       0.00000000       0.00000000       0.00000000       0.00000000       0.00000000   -3022.76684570
Ga       0.00000000       0.00000000       0.39797980       0.00000000       0.00000000    3022.76684570
2
Properties=species:S:1:pos:R:3:forces:R:3 energy=181.58380763491164 pbc="F F F"
Ga       0.00000000       0.00000000       0.00000000       0.00000000       0.00000000   -1558.57128906
Ga       0.00000000       0.00000000       0.45757576       0.00000000       0.00000000    1558.57128906
2
Properties=species:S:1:pos:R:3:forces:R:3 energy=112.68268460704358 pbc="F F F"
Ga       0.00000000       0.00000000       0.00000000       0.00000000       0.00000000    -834.97338867
Ga       0.00000000       0.00000000       0.51717172       0.00000000       0.00000000     834.97338867
2
Properties=species:S:1:pos:R:3:forces:R:3 energy=75.21716950200306 pbc="F F F"
Ga       0.00000000       0.00000000       0.00000000       0.00000000       0.00000000    -462.19055176
Ga       0.00000000       0.00000000       0.57676768       0.00000000       0.00000000     462.19055176
2
Properties=species:S:1:pos:R:3:forces:R:3 energy=54.213049685976976 pbc="F F F"
Ga       0.00000000       0.00000000       0.00000000       0.00000000       0.00000000    -262.42645264
Ga       0.00000000       0.00000000       0.63636364       0.00000000       0.00000000     262.42645264
2
Properties=species:S:1:pos:R:3:forces:R:3 energy=42.22072495191008 pbc="F F F"
Ga       0.00000000       0.00000000       0.00000000       0.00000000       0.00000000    -150.62939453
Ga       0.00000000       0.00000000       0.69595960       0.00000000       0.00000000     150.62939453
2
Properties=species:S:1:pos:R:3:forces:R:3 energy=35.283644707993474 pbc="F F F"
Ga       0.00000000       0.00000000       0.00000000       0.00000000       0.00000000     -88.47429657
Ga       0.00000000       0.00000000       0.75555556       0.00000000       0.00000000      88.47429657
2
Properties=species:S:1:pos:R:3:forces:R:3 energy=31.092082261314022 pbc="F F F"
Ga       0.00000000       0.00000000       0.00000000       0.00000000       0.00000000     -55.84634399
Ga       0.00000000       0.00000000       0.81515152       0.00000000       0.00000000      55.84634399
2
Properties=species:S:1:pos:R:3:forces:R:3 energy=28.31460529785283 pbc="F F F"
Ga       0.00000000       0.00000000       0.00000000       0.00000000       0.00000000     -39.12310791
Ga       0.00000000       0.00000000       0.87474747       0.00000000       0.00000000      39.12310791
2
Properties=species:S:1:pos:R:3:forces:R:3 energy=26.29192925444549 pbc="F F F"
Ga       0.00000000       0.00000000       0.00000000       0.00000000       0.00000000     -29.44949532
Ga       0.00000000       0.00000000       0.93434343       0.00000000       0.00000000      29.44949532
2
Properties=species:S:1:pos:R:3:forces:R:3 energy=24.74274313711744 pbc="F F F"
Ga       0.00000000       0.00000000       0.00000000       0.00000000       0.00000000     -23.13189125
Ga       0.00000000       0.00000000       0.99393939       0.00000000       0.00000000      23.13189125
2
Properties=species:S:1:pos:R:3:forces:R:3 energy=23.41709276658538 pbc="F F F"
Ga       0.00000000       0.00000000       0.00000000       0.00000000       0.00000000     -22.75583649
Ga       0.00000000       0.00000000       1.05353535       0.00000000       0.00000000      22.75583649
2
Properties=species:S:1:pos:R:3:forces:R:3 energy=21.868334376860044 pbc="F F F"
Ga       0.00000000       0.00000000       0.00000000       0.00000000       0.00000000     -30.09080696
Ga       0.00000000       0.00000000       1.11313131       0.00000000       0.00000000      30.09080696
2
Properties=species:S:1:pos:R:3:forces:R:3 energy=19.820411741625033 pbc="F F F"
Ga       0.00000000       0.00000000       0.00000000       0.00000000       0.00000000     -38.07761765
Ga       0.00000000       0.00000000       1.17272727       0.00000000       0.00000000      38.07761765
2
Properties=species:S:1:pos:R:3:forces:R:3 energy=17.425922380115345 pbc="F F F"
Ga       0.00000000       0.00000000       0.00000000       0.00000000       0.00000000     -41.44442749
Ga       0.00000000       0.00000000       1.23232323       0.00000000       0.00000000      41.44442749
2
Properties=species:S:1:pos:R:3:forces:R:3 energy=14.962396100689526 pbc="F F F"
Ga       0.00000000       0.00000000       0.00000000       0.00000000       0.00000000     -40.73075867
Ga       0.00000000       0.00000000       1.29191919       0.00000000       0.00000000      40.73075867
2
Properties=species:S:1:pos:R:3:forces:R:3 energy=12.60827406822545 pbc="F F F"
Ga       0.00000000       0.00000000       0.00000000       0.00000000       0.00000000     -38.12290573
Ga       0.00000000       0.00000000       1.35151515       0.00000000       0.00000000      38.12290573
2
Properties=species:S:1:pos:R:3:forces:R:3 energy=10.424030802020134 pbc="F F F"
Ga       0.00000000       0.00000000       0.00000000       0.00000000       0.00000000     -35.18878174
Ga       0.00000000       0.00000000       1.41111111       0.00000000       0.00000000      35.18878174
2
Properties=species:S:1:pos:R:3:forces:R:3 energy=8.412504607901601 pbc="F F F"
Ga       0.00000000       0.00000000       0.00000000       0.00000000       0.00000000     -32.31611252
Ga       0.00000000       0.00000000       1.47070707       0.00000000       0.00000000      32.31611252
2
Properties=species:S:1:pos:R:3:forces:R:3 energy=6.574347502830976 pbc="F F F"
Ga       0.00000000       0.00000000       0.00000000       0.00000000       0.00000000     -29.34033394
Ga       0.00000000       0.00000000       1.53030303       0.00000000       0.00000000      29.34033394
2
Properties=species:S:1:pos:R:3:forces:R:3 energy=4.920001453800097 pbc="F F F"
Ga       0.00000000       0.00000000       0.00000000       0.00000000       0.00000000     -26.13425636
Ga       0.00000000       0.00000000       1.58989899       0.00000000       0.00000000      26.13425636
2
Properties=species:S:1:pos:R:3:forces:R:3 energy=3.464513790766817 pbc="F F F"
Ga       0.00000000       0.00000000       0.00000000       0.00000000       0.00000000     -22.67501640
Ga       0.00000000       0.00000000       1.64949495       0.00000000       0.00000000      22.67501640
2
Properties=species:S:1:pos:R:3:forces:R:3 energy=2.219366055419944 pbc="F F F"
Ga       0.00000000       0.00000000       0.00000000       0.00000000       0.00000000     -19.11767006
Ga       0.00000000       0.00000000       1.70909091       0.00000000       0.00000000      19.11767006
2
Properties=species:S:1:pos:R:3:forces:R:3 energy=1.182221290189962 pbc="F F F"
Ga       0.00000000       0.00000000       0.00000000       0.00000000       0.00000000     -15.73937893
Ga       0.00000000       0.00000000       1.76868687       0.00000000       0.00000000      15.73937893
2
Properties=species:S:1:pos:R:3:forces:R:3 energy=0.3357166433829007 pbc="F F F"
Ga       0.00000000       0.00000000       0.00000000       0.00000000       0.00000000     -12.74005890
Ga       0.00000000       0.00000000       1.82828283       0.00000000       0.00000000      12.74005890
2
Properties=species:S:1:pos:R:3:forces:R:3 energy=-0.3449335687461449 pbc="F F F"
Ga       0.00000000       0.00000000       0.00000000       0.00000000       0.00000000     -10.17291832
Ga       0.00000000       0.00000000       1.88787879       0.00000000       0.00000000      10.17291832
2
Properties=species:S:1:pos:R:3:forces:R:3 energy=-0.884796228817019 pbc="F F F"
Ga       0.00000000       0.00000000       0.00000000       0.00000000       0.00000000      -8.00732803
Ga       0.00000000       0.00000000       1.94747475       0.00000000       0.00000000       8.00732803
2
Properties=species:S:1:pos:R:3:forces:R:3 energy=-1.3063629639261318 pbc="F F F"
Ga       0.00000000       0.00000000       0.00000000       0.00000000       0.00000000      -6.19557142
Ga       0.00000000       0.00000000       2.00707071       0.00000000       0.00000000       6.19557142
2
Properties=species:S:1:pos:R:3:forces:R:3 energy=-1.6294931831969623 pbc="F F F"
Ga       0.00000000       0.00000000       0.00000000       0.00000000       0.00000000      -4.69804955
Ga       0.00000000       0.00000000       2.06666667       0.00000000       0.00000000       4.69804955
2
Properties=species:S:1:pos:R:3:forces:R:3 energy=-1.871924433631458 pbc="F F F"
Ga       0.00000000       0.00000000       0.00000000       0.00000000       0.00000000      -3.48203301
Ga       0.00000000       0.00000000       2.12626263       0.00000000       0.00000000       3.48203301
2
Properties=species:S:1:pos:R:3:forces:R:3 energy=-2.049491852200813 pbc="F F F"
Ga       0.00000000       0.00000000       0.00000000       0.00000000       0.00000000      -2.51596165
Ga       0.00000000       0.00000000       2.18585859       0.00000000       0.00000000       2.51596165
2
Properties=species:S:1:pos:R:3:forces:R:3 energy=-2.1761159233026426 pbc="F F F"
Ga       0.00000000       0.00000000       0.00000000       0.00000000       0.00000000      -1.76671028
Ga       0.00000000       0.00000000       2.24545455       0.00000000       0.00000000       1.76671028
2
Properties=species:S:1:pos:R:3:forces:R:3 energy=-2.263673608351283 pbc="F F F"
Ga       0.00000000       0.00000000       0.00000000       0.00000000       0.00000000      -1.19881570
Ga       0.00000000       0.00000000       2.30505051       0.00000000       0.00000000       1.19881570
2
Properties=species:S:1:pos:R:3:forces:R:3 energy=-2.3218611972420944 pbc="F F F"
Ga       0.00000000       0.00000000       0.00000000       0.00000000       0.00000000      -0.77471447
Ga       0.00000000       0.00000000       2.36464646       0.00000000       0.00000000       0.77471447
2
Properties=species:S:1:pos:R:3:forces:R:3 energy=-2.3581194552530063 pbc="F F F"
Ga       0.00000000       0.00000000       0.00000000       0.00000000       0.00000000      -0.45680133
Ga       0.00000000       0.00000000       2.42424242       0.00000000       0.00000000       0.45680133
2
Properties=species:S:1:pos:R:3:forces:R:3 energy=-2.3777469654002683 pbc="F F F"
Ga       0.00000000       0.00000000       0.00000000       0.00000000       0.00000000      -0.21160126
Ga       0.00000000       0.00000000       2.48383838       0.00000000       0.00000000       0.21160126
2
Properties=species:S:1:pos:R:3:forces:R:3 energy=-2.3842782913110603 pbc="F F F"
Ga       0.00000000       0.00000000       0.00000000       0.00000000       0.00000000      -0.01391445
Ga       0.00000000       0.00000000       2.54343434       0.00000000       0.00000000       0.01391445
2
Properties=species:S:1:pos:R:3:forces:R:3 energy=-2.3800367336920756 pbc="F F F"
Ga       0.00000000       0.00000000       0.00000000       0.00000000       0.00000000       0.15174839
Ga       0.00000000       0.00000000       2.60303030       0.00000000       0.00000000      -0.15174839
2
Properties=species:S:1:pos:R:3:forces:R:3 energy=-2.3666696739226496 pbc="F F F"
Ga       0.00000000       0.00000000       0.00000000       0.00000000       0.00000000       0.29314375
Ga       0.00000000       0.00000000       2.66262626       0.00000000       0.00000000      -0.29314375
2
Properties=species:S:1:pos:R:3:forces:R:3 energy=-2.345510240417103 pbc="F F F"
Ga       0.00000000       0.00000000       0.00000000       0.00000000       0.00000000       0.41366088
Ga       0.00000000       0.00000000       2.72222222       0.00000000       0.00000000      -0.41366088
2
Properties=species:S:1:pos:R:3:forces:R:3 energy=-2.3177422408462096 pbc="F F F"
Ga       0.00000000       0.00000000       0.00000000       0.00000000       0.00000000       0.51520956
Ga       0.00000000       0.00000000       2.78181818       0.00000000       0.00000000      -0.51520956
2
Properties=species:S:1:pos:R:3:forces:R:3 energy=-2.284436344133687 pbc="F F F"
Ga       0.00000000       0.00000000       0.00000000       0.00000000       0.00000000       0.59993088
Ga       0.00000000       0.00000000       2.84141414       0.00000000       0.00000000      -0.59993088
2
Properties=species:S:1:pos:R:3:forces:R:3 energy=-2.24650437147437 pbc="F F F"
Ga       0.00000000       0.00000000       0.00000000       0.00000000       0.00000000       0.67116970
Ga       0.00000000       0.00000000       2.90101010       0.00000000       0.00000000      -0.67116970
2
Properties=species:S:1:pos:R:3:forces:R:3 energy=-2.204609931849725 pbc="F F F"
Ga       0.00000000       0.00000000       0.00000000       0.00000000       0.00000000       0.73379511
Ga       0.00000000       0.00000000       2.96060606       0.00000000       0.00000000      -0.73379511
2
Properties=species:S:1:pos:R:3:forces:R:3 energy=-2.1591211952671836 pbc="F F F"
Ga       0.00000000       0.00000000       0.00000000       0.00000000       0.00000000       0.79229558
Ga       0.00000000       0.00000000       3.02020202       0.00000000       0.00000000      -0.79229558
2
Properties=species:S:1:pos:R:3:forces:R:3 energy=-2.1102381550782883 pbc="F F F"
Ga       0.00000000       0.00000000       0.00000000       0.00000000       0.00000000       0.84745800
Ga       0.00000000       0.00000000       3.07979798       0.00000000       0.00000000      -0.84745800
2
Properties=species:S:1:pos:R:3:forces:R:3 energy=-2.0582256249345674 pbc="F F F"
Ga       0.00000000       0.00000000       0.00000000       0.00000000       0.00000000       0.89683485
Ga       0.00000000       0.00000000       3.13939394       0.00000000       0.00000000      -0.89683485
2
Properties=species:S:1:pos:R:3:forces:R:3 energy=-2.0035093630941323 pbc="F F F"
Ga       0.00000000       0.00000000       0.00000000       0.00000000       0.00000000       0.93785477
Ga       0.00000000       0.00000000       3.19898990       0.00000000       0.00000000      -0.93785477
2
Properties=species:S:1:pos:R:3:forces:R:3 energy=-1.946638454128806 pbc="F F F"
Ga       0.00000000       0.00000000       0.00000000       0.00000000       0.00000000       0.96895796
Ga       0.00000000       0.00000000       3.25858586       0.00000000       0.00000000      -0.96895796
2
Properties=species:S:1:pos:R:3:forces:R:3 energy=-1.8882303833837024 pbc="F F F"
Ga       0.00000000       0.00000000       0.00000000       0.00000000       0.00000000       0.98936427
Ga       0.00000000       0.00000000       3.31818182       0.00000000       0.00000000      -0.98936427
2
Properties=species:S:1:pos:R:3:forces:R:3 energy=-1.8289306497604219 pbc="F F F"
Ga       0.00000000       0.00000000       0.00000000       0.00000000       0.00000000       0.99891341
Ga       0.00000000       0.00000000       3.37777778       0.00000000       0.00000000      -0.99891341
2
Properties=species:S:1:pos:R:3:forces:R:3 energy=-1.7693760852861982 pbc="F F F"
Ga       0.00000000       0.00000000       0.00000000       0.00000000       0.00000000       0.99802518
Ga       0.00000000       0.00000000       3.43737374       0.00000000       0.00000000      -0.99802518
2
Properties=species:S:1:pos:R:3:forces:R:3 energy=-1.710163159986857 pbc="F F F"
Ga       0.00000000       0.00000000       0.00000000       0.00000000       0.00000000       0.98760426
Ga       0.00000000       0.00000000       3.49696970       0.00000000       0.00000000      -0.98760426
2
Properties=species:S:1:pos:R:3:forces:R:3 energy=-1.6518268296860927 pbc="F F F"
Ga       0.00000000       0.00000000       0.00000000       0.00000000       0.00000000       0.96885335
Ga       0.00000000       0.00000000       3.55656566       0.00000000       0.00000000      -0.96885335
2
Properties=species:S:1:pos:R:3:forces:R:3 energy=-1.5948233385419202 pbc="F F F"
Ga       0.00000000       0.00000000       0.00000000       0.00000000       0.00000000       0.94308770
Ga       0.00000000       0.00000000       3.61616162       0.00000000       0.00000000      -0.94308770
2
Properties=species:S:1:pos:R:3:forces:R:3 energy=-1.5395326077444238 pbc="F F F"
Ga       0.00000000       0.00000000       0.00000000       0.00000000       0.00000000       0.91158867
Ga       0.00000000       0.00000000       3.67575758       0.00000000       0.00000000      -0.91158867
2
Properties=species:S:1:pos:R:3:forces:R:3 energy=-1.4862591783588066 pbc="F F F"
Ga       0.00000000       0.00000000       0.00000000       0.00000000       0.00000000       0.87555468
Ga       0.00000000       0.00000000       3.73535354       0.00000000       0.00000000      -0.87555468
2
Properties=species:S:1:pos:R:3:forces:R:3 energy=-1.4352410418203985 pbc="F F F"
Ga       0.00000000       0.00000000       0.00000000       0.00000000       0.00000000       0.83609539
Ga       0.00000000       0.00000000       3.79494949       0.00000000       0.00000000      -0.83609539
2
Properties=species:S:1:pos:R:3:forces:R:3 energy=-1.3866507088185218 pbc="F F F"
Ga       0.00000000       0.00000000       0.00000000       0.00000000       0.00000000       0.79424196
Ga       0.00000000       0.00000000       3.85454545       0.00000000       0.00000000      -0.79424196
2
Properties=species:S:1:pos:R:3:forces:R:3 energy=-1.3406018588422126 pbc="F F F"
Ga       0.00000000       0.00000000       0.00000000       0.00000000       0.00000000       0.75097787
Ga       0.00000000       0.00000000       3.91414141       0.00000000       0.00000000      -0.75097787
2
Properties=species:S:1:pos:R:3:forces:R:3 energy=-1.2971501136247068 pbc="F F F"
Ga       0.00000000       0.00000000       0.00000000       0.00000000       0.00000000       0.70720172
Ga       0.00000000       0.00000000       3.97373737       0.00000000       0.00000000      -0.70720172
2
Properties=species:S:1:pos:R:3:forces:R:3 energy=-1.2563031889399858 pbc="F F F"
Ga       0.00000000       0.00000000       0.00000000       0.00000000       0.00000000       0.66371328
Ga       0.00000000       0.00000000       4.03333333       0.00000000       0.00000000      -0.66371328
2
Properties=species:S:1:pos:R:3:forces:R:3 energy=-1.218022420148916 pbc="F F F"
Ga       0.00000000       0.00000000       0.00000000       0.00000000       0.00000000       0.62114972
Ga       0.00000000       0.00000000       4.09292929       0.00000000       0.00000000      -0.62114972
2
Properties=species:S:1:pos:R:3:forces:R:3 energy=-1.182239093871916 pbc="F F F"
Ga       0.00000000       0.00000000       0.00000000       0.00000000       0.00000000       0.57996398
Ga       0.00000000       0.00000000       4.15252525       0.00000000       0.00000000      -0.57996398
2
Properties=species:S:1:pos:R:3:forces:R:3 energy=-1.1488630310578054 pbc="F F F"
Ga       0.00000000       0.00000000       0.00000000       0.00000000       0.00000000       0.54041827
Ga       0.00000000       0.00000000       4.21212121       0.00000000       0.00000000      -0.54041827
2
Properties=species:S:1:pos:R:3:forces:R:3 energy=-1.1177908841167405 pbc="F F F"
Ga       0.00000000       0.00000000       0.00000000       0.00000000       0.00000000       0.50262052
Ga       0.00000000       0.00000000       4.27171717       0.00000000       0.00000000      -0.50262052
2
Properties=species:S:1:pos:R:3:forces:R:3 energy=-1.0889193469765996 pbc="F F F"
Ga       0.00000000       0.00000000       0.00000000       0.00000000       0.00000000       0.46659935
Ga       0.00000000       0.00000000       4.33131313       0.00000000       0.00000000      -0.46659935
2
Properties=species:S:1:pos:R:3:forces:R:3 energy=-1.062140467906825 pbc="F F F"
Ga       0.00000000       0.00000000       0.00000000       0.00000000       0.00000000       0.43238610
Ga       0.00000000       0.00000000       4.39090909       0.00000000       0.00000000      -0.43238610
2
Properties=species:S:1:pos:R:3:forces:R:3 energy=-1.0373436400623488 pbc="F F F"
Ga       0.00000000       0.00000000       0.00000000       0.00000000       0.00000000       0.40011111
Ga       0.00000000       0.00000000       4.45050505       0.00000000       0.00000000      -0.40011111
2
Properties=species:S:1:pos:R:3:forces:R:3 energy=-1.0144064445430538 pbc="F F F"
Ga       0.00000000       0.00000000       0.00000000       0.00000000       0.00000000       0.37006313
Ga       0.00000000       0.00000000       4.51010101       0.00000000       0.00000000      -0.37006313
2
Properties=species:S:1:pos:R:3:forces:R:3 energy=-0.9931819180064636 pbc="F F F"
Ga       0.00000000       0.00000000       0.00000000       0.00000000       0.00000000       0.34269458
Ga       0.00000000       0.00000000       4.56969697       0.00000000       0.00000000      -0.34269458
2
Properties=species:S:1:pos:R:3:forces:R:3 energy=-0.9734947791521652 pbc="F F F"
Ga       0.00000000       0.00000000       0.00000000       0.00000000       0.00000000       0.31858402
Ga       0.00000000       0.00000000       4.62929293       0.00000000       0.00000000      -0.31858402
2
Properties=species:S:1:pos:R:3:forces:R:3 energy=-0.9551340765916405 pbc="F F F"
Ga       0.00000000       0.00000000       0.00000000       0.00000000       0.00000000       0.29827800
Ga       0.00000000       0.00000000       4.68888889       0.00000000       0.00000000      -0.29827800
2
Properties=species:S:1:pos:R:3:forces:R:3 energy=-0.9378604289367082 pbc="F F F"
Ga       0.00000000       0.00000000       0.00000000       0.00000000       0.00000000       0.28208560
Ga       0.00000000       0.00000000       4.74848485       0.00000000       0.00000000      -0.28208560
2
Properties=species:S:1:pos:R:3:forces:R:3 energy=-0.9214332613703217 pbc="F F F"
Ga       0.00000000       0.00000000       0.00000000       0.00000000       0.00000000       0.26981404
Ga       0.00000000       0.00000000       4.80808081       0.00000000       0.00000000      -0.26981404
2
Properties=species:S:1:pos:R:3:forces:R:3 energy=-0.905641258868317 pbc="F F F"
Ga       0.00000000       0.00000000       0.00000000       0.00000000       0.00000000       0.26050389
Ga       0.00000000       0.00000000       4.86767677       0.00000000       0.00000000      -0.26050389
2
Properties=species:S:1:pos:R:3:forces:R:3 energy=-0.8903604579693378 pbc="F F F"
Ga       0.00000000       0.00000000       0.00000000       0.00000000       0.00000000       0.25228328
Ga       0.00000000       0.00000000       4.92727273       0.00000000       0.00000000      -0.25228328
2
Properties=species:S:1:pos:R:3:forces:R:3 energy=-0.8756006138527607 pbc="F F F"
Ga       0.00000000       0.00000000       0.00000000       0.00000000       0.00000000       0.24257132
Ga       0.00000000       0.00000000       4.98686869       0.00000000       0.00000000      -0.24257132
2
Properties=species:S:1:pos:R:3:forces:R:3 energy=-0.8615265029555464 pbc="F F F"
Ga       0.00000000       0.00000000       0.00000000       0.00000000       0.00000000       0.22906165
Ga       0.00000000       0.00000000       5.04646465       0.00000000       0.00000000      -0.22906165
2
Properties=species:S:1:pos:R:3:forces:R:3 energy=-0.8483719160536758 pbc="F F F"
Ga       0.00000000       0.00000000       0.00000000       0.00000000       0.00000000       0.21210299
Ga       0.00000000       0.00000000       5.10606061       0.00000000       0.00000000      -0.21210299
2
Properties=species:S:1:pos:R:3:forces:R:3 energy=-0.8361957893178602 pbc="F F F"
Ga       0.00000000       0.00000000       0.00000000       0.00000000       0.00000000       0.19775739
Ga       0.00000000       0.00000000       5.16565657       0.00000000       0.00000000      -0.19775739
2
Properties=species:S:1:pos:R:3:forces:R:3 energy=-0.8245222096821206 pbc="F F F"
Ga       0.00000000       0.00000000       0.00000000       0.00000000       0.00000000       0.19721739
Ga       0.00000000       0.00000000       5.22525253       0.00000000       0.00000000      -0.19721739
2
Properties=species:S:1:pos:R:3:forces:R:3 energy=-0.8122917536949852 pbc="F F F"
Ga       0.00000000       0.00000000       0.00000000       0.00000000       0.00000000       0.21598214
Ga       0.00000000       0.00000000       5.28484848       0.00000000       0.00000000      -0.21598214
2
Properties=species:S:1:pos:R:3:forces:R:3 energy=-0.7986608792566798 pbc="F F F"
Ga       0.00000000       0.00000000       0.00000000       0.00000000       0.00000000       0.24021927
Ga       0.00000000       0.00000000       5.34444444       0.00000000       0.00000000      -0.24021927
2
Properties=species:S:1:pos:R:3:forces:R:3 energy=-0.7840428342089977 pbc="F F F"
Ga       0.00000000       0.00000000       0.00000000       0.00000000       0.00000000       0.24588297
Ga       0.00000000       0.00000000       5.40404040       0.00000000       0.00000000      -0.24588297
2
Properties=species:S:1:pos:R:3:forces:R:3 energy=-0.7698380777822449 pbc="F F F"
Ga       0.00000000       0.00000000       0.00000000       0.00000000       0.00000000       0.22807175
Ga       0.00000000       0.00000000       5.46363636       0.00000000       0.00000000      -0.22807175
2
Properties=species:S:1:pos:R:3:forces:R:3 energy=-0.7568789259002258 pbc="F F F"
Ga       0.00000000       0.00000000       0.00000000       0.00000000       0.00000000       0.20965926
Ga       0.00000000       0.00000000       5.52323232       0.00000000       0.00000000      -0.20965926
2
Properties=species:S:1:pos:R:3:forces:R:3 energy=-0.7442826877067183 pbc="F F F"
Ga       0.00000000       0.00000000       0.00000000       0.00000000       0.00000000       0.21900027
Ga       0.00000000       0.00000000       5.58282828       0.00000000       0.00000000      -0.21900027
2
Properties=species:S:1:pos:R:3:forces:R:3 energy=-0.7301640014671402 pbc="F F F"
Ga       0.00000000       0.00000000       0.00000000       0.00000000       0.00000000       0.25762391
Ga       0.00000000       0.00000000       5.64242424       0.00000000       0.00000000      -0.25762391
2
Properties=species:S:1:pos:R:3:forces:R:3 energy=-0.7137113655258761 pbc="F F F"
Ga       0.00000000       0.00000000       0.00000000       0.00000000       0.00000000       0.28861424
Ga       0.00000000       0.00000000       5.70202020       0.00000000       0.00000000      -0.28861424
2
Properties=species:S:1:pos:R:3:forces:R:3 energy=-0.6967920600990997 pbc="F F F"
Ga       0.00000000       0.00000000       0.00000000       0.00000000       0.00000000       0.26990113
Ga       0.00000000       0.00000000       5.76161616       0.00000000       0.00000000      -0.26990113
2
Properties=species:S:1:pos:R:3:forces:R:3 energy=-0.6826250124289596 pbc="F F F"
Ga       0.00000000       0.00000000       0.00000000       0.00000000       0.00000000       0.19832768
Ga       0.00000000       0.00000000       5.82121212       0.00000000       0.00000000      -0.19832768
2
Properties=species:S:1:pos:R:3:forces:R:3 energy=-0.6735690501897422 pbc="F F F"
Ga       0.00000000       0.00000000       0.00000000       0.00000000       0.00000000       0.10690751
Ga       0.00000000       0.00000000       5.88080808       0.00000000       0.00000000      -0.10690751
2
Properties=species:S:1:pos:R:3:forces:R:3 energy=-0.6694636632325924 pbc="F F F"
Ga       0.00000000       0.00000000       0.00000000       0.00000000       0.00000000       0.03536011
Ga       0.00000000       0.00000000       5.94040404       0.00000000       0.00000000      -0.03536011
2
Properties=species:S:1:pos:R:3:forces:R:3 energy=-0.668439160796699 pbc="F F F"
Ga       0.00000000       0.00000000       0.00000000       0.00000000       0.00000000       0.00820687
Ga       0.00000000       0.00000000       6.00000000       0.00000000       0.00000000      -0.00820687
