2
Properties=species:S:1:pos:R:3:forces:R:3 energy=12154.289244046342 pbc="F F F"
Gd       0.00000000       0.00000000       0.00000000       0.00000000       0.00000000 -209262.43750000
Gd       0.00000000       0.00000000       0.18000000       0.00000000       0.00000000  209262.43750000
2
Properties=species:S:1:pos:R:3:forces:R:3 energy=4798.445982327593 pbc="F F F"
Gd       0.00000000       0.00000000       0.00000000       0.00000000       0.00000000  -70194.93750000
Gd       0.00000000       0.00000000       0.23878788       0.00000000       0.00000000   70194.93750000
2
Properties=species:S:1:pos:R:3:forces:R:3 energy=2138.3009627963424 pbc="F F F"
Gd       0.00000000       0.00000000       0.00000000       0.00000000       0.00000000  -27721.94531250
Gd       0.00000000       0.00000000       0.29757576       0.00000000       0.00000000   27721.94531250
2
Properties=species:S:1:pos:R:3:forces:R:3 energy=1037.4992049838427 pbc="F F F"
Gd       0.00000000       0.00000000       0.00000000       0.00000000       0.00000000  -12113.40625000
Gd       0.00000000       0.00000000       0.35636364       0.00000000       0.00000000   12113.40625000
2
Properties=species:S:1:pos:R:3:forces:R:3 energy=540.5177596776782 pbc="F F F"
Gd       0.00000000       0.00000000       0.00000000       0.00000000       0.00000000   -5684.55712891
Gd       0.00000000       0.00000000       0.41515152       0.00000000       0.00000000    5684.55712891
2
Properties=species:S:1:pos:R:3:forces:R:3 energy=301.2096236976858 pbc="F F F"
Gd       0.00000000       0.00000000       0.00000000       0.00000000       0.00000000   -2822.82495117
Gd       0.00000000       0.00000000       0.47393939       0.00000000       0.00000000    2822.82495117
2
Properties=species:S:1:pos:R:3:forces:R:3 energy=179.76486053309898 pbc="F F F"
Gd       0.00000000       0.00000000       0.00000000       0.00000000       0.00000000   -1469.79956055
Gd       0.00000000       0.00000000       0.53272727       0.00000000       0.00000000    1469.79956055
2
Properties=species:S:1:pos:R:3:forces:R:3 energy=115.37351077863237 pbc="F F F"
Gd       0.00000000       0.00000000       0.00000000       0.00000000       0.00000000    -795.54156494
Gd       0.00000000       0.00000000       0.59151515       0.00000000       0.00000000     795.54156494
2
Properties=species:S:1:pos:R:3:forces:R:3 energy=80.05350350509877 pbc="F F F"
Gd       0.00000000       0.00000000       0.00000000       0.00000000       0.00000000    -442.35473633
Gd       0.00000000       0.00000000       0.65030303       0.00000000       0.00000000     442.35473633
2
Properties=species:S:1:pos:R:3:forces:R:3 energy=60.30175645611449 pbc="F F F"
Gd       0.00000000       0.00000000       0.00000000       0.00000000       0.00000000    -248.04463196
Gd       0.00000000       0.00000000       0.70909091       0.00000000       0.00000000     248.04463196
2
Properties=species:S:1:pos:R:3:forces:R:3 energy=49.29474518192445 pbc="F F F"
Gd       0.00000000       0.00000000       0.00000000       0.00000000       0.00000000    -136.36085510
Gd       0.00000000       0.00000000       0.76787879       0.00000000       0.00000000     136.36085510
2
Properties=species:S:1:pos:R:3:forces:R:3 energy=43.37058918302893 pbc="F F F"
Gd       0.00000000       0.00000000       0.00000000       0.00000000       0.00000000     -71.13094330
Gd       0.00000000       0.00000000       0.82666667       0.00000000       0.00000000      71.13094330
2
Properties=species:S:1:pos:R:3:forces:R:3 energy=40.36334535168986 pbc="F F F"
Gd       0.00000000       0.00000000       0.00000000       0.00000000       0.00000000     -35.09881973
Gd       0.00000000       0.00000000       0.88545455       0.00000000       0.00000000      35.09881973
2
Properties=species:S:1:pos:R:3:forces:R:3 energy=38.87692605409414 pbc="F F F"
Gd       0.00000000       0.00000000       0.00000000       0.00000000       0.00000000     -17.80302811
Gd       0.00000000       0.00000000       0.94424242       0.00000000       0.00000000      17.80302811
2
Properties=species:S:1:pos:R:3:forces:R:3 energy=38.07705324057313 pbc="F F F"
Gd       0.00000000       0.00000000       0.00000000       0.00000000       0.00000000     -10.50072384
Gd       0.00000000       0.00000000       1.00303030       0.00000000       0.00000000      10.50072384
2
Properties=species:S:1:pos:R:3:forces:R:3 energy=37.54685299824898 pbc="F F F"
Gd       0.00000000       0.00000000       0.00000000       0.00000000       0.00000000      -8.23516369
Gd       0.00000000       0.00000000       1.06181818       0.00000000       0.00000000       8.23516369
2
Properties=species:S:1:pos:R:3:forces:R:3 energy=37.023309649743474 pbc="F F F"
Gd       0.00000000       0.00000000       0.00000000       0.00000000       0.00000000     -10.36401367
Gd       0.00000000       0.00000000       1.12060606       0.00000000       0.00000000      10.36401367
2
Properties=species:S:1:pos:R:3:forces:R:3 energy=36.22950672916423 pbc="F F F"
Gd       0.00000000       0.00000000       0.00000000       0.00000000       0.00000000     -17.50819969
Gd       0.00000000       0.00000000       1.17939394       0.00000000       0.00000000      17.50819969
2
Properties=species:S:1:pos:R:3:forces:R:3 energy=34.86427015505626 pbc="F F F"
Gd       0.00000000       0.00000000       0.00000000       0.00000000       0.00000000     -29.74342346
Gd       0.00000000       0.00000000       1.23818182       0.00000000       0.00000000      29.74342346
2
Properties=species:S:1:pos:R:3:forces:R:3 energy=32.65200339746624 pbc="F F F"
Gd       0.00000000       0.00000000       0.00000000       0.00000000       0.00000000     -46.04000854
Gd       0.00000000       0.00000000       1.29696970       0.00000000       0.00000000      46.04000854
2
Properties=species:S:1:pos:R:3:forces:R:3 energy=29.414182521423566 pbc="F F F"
Gd       0.00000000       0.00000000       0.00000000       0.00000000       0.00000000     -64.21749878
Gd       0.00000000       0.00000000       1.35575758       0.00000000       0.00000000      64.21749878
2
Properties=species:S:1:pos:R:3:forces:R:3 energy=25.11195878935928 pbc="F F F"
Gd       0.00000000       0.00000000       0.00000000       0.00000000       0.00000000     -81.87546539
Gd       0.00000000       0.00000000       1.41454545       0.00000000       0.00000000      81.87546539
2
Properties=species:S:1:pos:R:3:forces:R:3 energy=19.840879018720166 pbc="F F F"
Gd       0.00000000       0.00000000       0.00000000       0.00000000       0.00000000     -96.79832458
Gd       0.00000000       0.00000000       1.47333333       0.00000000       0.00000000      96.79832458
2
Properties=species:S:1:pos:R:3:forces:R:3 energy=13.834482980874375 pbc="F F F"
Gd       0.00000000       0.00000000       0.00000000       0.00000000       0.00000000    -106.41486359
Gd       0.00000000       0.00000000       1.53212121       0.00000000       0.00000000     106.41486359
2
Properties=species:S:1:pos:R:3:forces:R:3 energy=7.489320046395241 pbc="F F F"
Gd       0.00000000       0.00000000       0.00000000       0.00000000       0.00000000    -107.89795685
Gd       0.00000000       0.00000000       1.59090909       0.00000000       0.00000000     107.89795685
2
Properties=species:S:1:pos:R:3:forces:R:3 energy=1.3367415138365655 pbc="F F F"
Gd       0.00000000       0.00000000       0.00000000       0.00000000       0.00000000     -99.90460205
Gd       0.00000000       0.00000000       1.64969697       0.00000000       0.00000000      99.90460205
2
Properties=species:S:1:pos:R:3:forces:R:3 energy=-4.115493294480175 pbc="F F F"
Gd       0.00000000       0.00000000       0.00000000       0.00000000       0.00000000     -84.79522705
Gd       0.00000000       0.00000000       1.70848485       0.00000000       0.00000000      84.79522705
2
Properties=species:S:1:pos:R:3:forces:R:3 energy=-8.59472673072003 pbc="F F F"
Gd       0.00000000       0.00000000       0.00000000       0.00000000       0.00000000     -67.67456055
Gd       0.00000000       0.00000000       1.76727273       0.00000000       0.00000000      67.67456055
2
Properties=species:S:1:pos:R:3:forces:R:3 energy=-12.112160361963866 pbc="F F F"
Gd       0.00000000       0.00000000       0.00000000       0.00000000       0.00000000     -52.46671295
Gd       0.00000000       0.00000000       1.82606061       0.00000000       0.00000000      52.46671295
2
Properties=species:S:1:pos:R:3:forces:R:3 energy=-14.819456704303205 pbc="F F F"
Gd       0.00000000       0.00000000       0.00000000       0.00000000       0.00000000     -40.06322479
Gd       0.00000000       0.00000000       1.88484848       0.00000000       0.00000000      40.06322479
2
Properties=species:S:1:pos:R:3:forces:R:3 energy=-16.86542672426706 pbc="F F F"
Gd       0.00000000       0.00000000       0.00000000       0.00000000       0.00000000     -29.86343956
Gd       0.00000000       0.00000000       1.94363636       0.00000000       0.00000000      29.86343956
2
Properties=species:S:1:pos:R:3:forces:R:3 energy=-18.367808733793435 pbc="F F F"
Gd       0.00000000       0.00000000       0.00000000       0.00000000       0.00000000     -21.57369995
Gd       0.00000000       0.00000000       2.00242424       0.00000000       0.00000000      21.57369995
2
Properties=species:S:1:pos:R:3:forces:R:3 energy=-19.44120343097678 pbc="F F F"
Gd       0.00000000       0.00000000       0.00000000       0.00000000       0.00000000     -15.27405548
Gd       0.00000000       0.00000000       2.06121212       0.00000000       0.00000000      15.27405548
2
Properties=species:S:1:pos:R:3:forces:R:3 energy=-20.19949427479788 pbc="F F F"
Gd       0.00000000       0.00000000       0.00000000       0.00000000       0.00000000     -10.79111958
Gd       0.00000000       0.00000000       2.12000000       0.00000000       0.00000000      10.79111958
2
Properties=species:S:1:pos:R:3:forces:R:3 energy=-20.736260966362995 pbc="F F F"
Gd       0.00000000       0.00000000       0.00000000       0.00000000       0.00000000      -7.65110397
Gd       0.00000000       0.00000000       2.17878788       0.00000000       0.00000000       7.65110397
2
Properties=species:S:1:pos:R:3:forces:R:3 energy=-21.11631076395341 pbc="F F F"
Gd       0.00000000       0.00000000       0.00000000       0.00000000       0.00000000      -5.39733315
Gd       0.00000000       0.00000000       2.23757576       0.00000000       0.00000000       5.39733315
2
Properties=species:S:1:pos:R:3:forces:R:3 energy=-21.38269186730469 pbc="F F F"
Gd       0.00000000       0.00000000       0.00000000       0.00000000       0.00000000      -3.75221920
Gd       0.00000000       0.00000000       2.29636364       0.00000000       0.00000000       3.75221920
2
Properties=species:S:1:pos:R:3:forces:R:3 energy=-21.566672595961496 pbc="F F F"
Gd       0.00000000       0.00000000       0.00000000       0.00000000       0.00000000      -2.57773256
Gd       0.00000000       0.00000000       2.35515152       0.00000000       0.00000000       2.57773256
2
Properties=species:S:1:pos:R:3:forces:R:3 energy=-21.693352834297876 pbc="F F F"
Gd       0.00000000       0.00000000       0.00000000       0.00000000       0.00000000      -1.79021049
Gd       0.00000000       0.00000000       2.41393939       0.00000000       0.00000000       1.79021049
2
Properties=species:S:1:pos:R:3:forces:R:3 energy=-21.783209028259375 pbc="F F F"
Gd       0.00000000       0.00000000       0.00000000       0.00000000       0.00000000      -1.31127155
Gd       0.00000000       0.00000000       2.47272727       0.00000000       0.00000000       1.31127155
2
Properties=species:S:1:pos:R:3:forces:R:3 energy=-21.851920477253252 pbc="F F F"
Gd       0.00000000       0.00000000       0.00000000       0.00000000       0.00000000      -1.05655324
Gd       0.00000000       0.00000000       2.53151515       0.00000000       0.00000000       1.05655324
2
Properties=species:S:1:pos:R:3:forces:R:3 energy=-21.910201626852988 pbc="F F F"
Gd       0.00000000       0.00000000       0.00000000       0.00000000       0.00000000      -0.94352871
Gd       0.00000000       0.00000000       2.59030303       0.00000000       0.00000000       0.94352871
2
Properties=species:S:1:pos:R:3:forces:R:3 energy=-21.96424827433675 pbc="F F F"
Gd       0.00000000       0.00000000       0.00000000       0.00000000       0.00000000      -0.90217113
Gd       0.00000000       0.00000000       2.64909091       0.00000000       0.00000000       0.90217113
2
Properties=species:S:1:pos:R:3:forces:R:3 energy=-22.01663415559335 pbc="F F F"
Gd       0.00000000       0.00000000       0.00000000       0.00000000       0.00000000      -0.87970567
Gd       0.00000000       0.00000000       2.70787879       0.00000000       0.00000000       0.87970567
2
Properties=species:S:1:pos:R:3:forces:R:3 energy=-22.067319736144036 pbc="F F F"
Gd       0.00000000       0.00000000       0.00000000       0.00000000       0.00000000      -0.83933061
Gd       0.00000000       0.00000000       2.76666667       0.00000000       0.00000000       0.83933061
2
Properties=species:S:1:pos:R:3:forces:R:3 energy=-22.114499238662194 pbc="F F F"
Gd       0.00000000       0.00000000       0.00000000       0.00000000       0.00000000      -0.75755024
Gd       0.00000000       0.00000000       2.82545455       0.00000000       0.00000000       0.75755024
2
Properties=species:S:1:pos:R:3:forces:R:3 energy=-22.155359704372785 pbc="F F F"
Gd       0.00000000       0.00000000       0.00000000       0.00000000       0.00000000      -0.62362731
Gd       0.00000000       0.00000000       2.88424242       0.00000000       0.00000000       0.62362731
2
Properties=species:S:1:pos:R:3:forces:R:3 energy=-22.18684961020185 pbc="F F F"
Gd       0.00000000       0.00000000       0.00000000       0.00000000       0.00000000      -0.44044277
Gd       0.00000000       0.00000000       2.94303030       0.00000000       0.00000000       0.44044277
2
Properties=species:S:1:pos:R:3:forces:R:3 energy=-22.20648386493422 pbc="F F F"
Gd       0.00000000       0.00000000       0.00000000       0.00000000       0.00000000      -0.22386357
Gd       0.00000000       0.00000000       3.00181818       0.00000000       0.00000000       0.22386357
2
Properties=species:S:1:pos:R:3:forces:R:3 energy=-22.213001692436368 pbc="F F F"
Gd       0.00000000       0.00000000       0.00000000       0.00000000       0.00000000       0.00127114
Gd       0.00000000       0.00000000       3.06060606       0.00000000       0.00000000      -0.00127114
2
Properties=species:S:1:pos:R:3:forces:R:3 energy=-22.206696843724384 pbc="F F F"
Gd       0.00000000       0.00000000       0.00000000       0.00000000       0.00000000       0.20818713
Gd       0.00000000       0.00000000       3.11939394       0.00000000       0.00000000      -0.20818713
2
Properties=species:S:1:pos:R:3:forces:R:3 energy=-22.18930093191514 pbc="F F F"
Gd       0.00000000       0.00000000       0.00000000       0.00000000       0.00000000       0.37581810
Gd       0.00000000       0.00000000       3.17818182       0.00000000       0.00000000      -0.37581810
2
Properties=species:S:1:pos:R:3:forces:R:3 energy=-22.163489663349253 pbc="F F F"
Gd       0.00000000       0.00000000       0.00000000       0.00000000       0.00000000       0.49384671
Gd       0.00000000       0.00000000       3.23696970       0.00000000       0.00000000      -0.49384671
2
Properties=species:S:1:pos:R:3:forces:R:3 energy=-22.13219425305639 pbc="F F F"
Gd       0.00000000       0.00000000       0.00000000       0.00000000       0.00000000       0.56330276
Gd       0.00000000       0.00000000       3.29575758       0.00000000       0.00000000      -0.56330276
2
Properties=species:S:1:pos:R:3:forces:R:3 energy=-22.0980329461637 pbc="F F F"
Gd       0.00000000       0.00000000       0.00000000       0.00000000       0.00000000       0.59337324
Gd       0.00000000       0.00000000       3.35454545       0.00000000       0.00000000      -0.59337324
2
Properties=species:S:1:pos:R:3:forces:R:3 energy=-22.06294491466424 pbc="F F F"
Gd       0.00000000       0.00000000       0.00000000       0.00000000       0.00000000       0.59703684
Gd       0.00000000       0.00000000       3.41333333       0.00000000       0.00000000      -0.59703684
2
Properties=species:S:1:pos:R:3:forces:R:3 energy=-22.028089066569144 pbc="F F F"
Gd       0.00000000       0.00000000       0.00000000       0.00000000       0.00000000       0.58763647
Gd       0.00000000       0.00000000       3.47212121       0.00000000       0.00000000      -0.58763647
2
Properties=species:S:1:pos:R:3:forces:R:3 energy=-21.993880418580176 pbc="F F F"
Gd       0.00000000       0.00000000       0.00000000       0.00000000       0.00000000       0.57677782
Gd       0.00000000       0.00000000       3.53090909       0.00000000       0.00000000      -0.57677782
2
Properties=species:S:1:pos:R:3:forces:R:3 energy=-21.9601370126196 pbc="F F F"
Gd       0.00000000       0.00000000       0.00000000       0.00000000       0.00000000       0.57275891
Gd       0.00000000       0.00000000       3.58969697       0.00000000       0.00000000      -0.57275891
2
Properties=species:S:1:pos:R:3:forces:R:3 energy=-21.92632771276135 pbc="F F F"
Gd       0.00000000       0.00000000       0.00000000       0.00000000       0.00000000       0.57926613
Gd       0.00000000       0.00000000       3.64848485       0.00000000       0.00000000      -0.57926613
2
Properties=species:S:1:pos:R:3:forces:R:3 energy=-21.891849131914505 pbc="F F F"
Gd       0.00000000       0.00000000       0.00000000       0.00000000       0.00000000       0.59490317
Gd       0.00000000       0.00000000       3.70727273       0.00000000       0.00000000      -0.59490317
2
Properties=species:S:1:pos:R:3:forces:R:3 energy=-21.856305568577213 pbc="F F F"
Gd       0.00000000       0.00000000       0.00000000       0.00000000       0.00000000       0.61432093
Gd       0.00000000       0.00000000       3.76606061       0.00000000       0.00000000      -0.61432093
2
Properties=species:S:1:pos:R:3:forces:R:3 energy=-21.819679166346255 pbc="F F F"
Gd       0.00000000       0.00000000       0.00000000       0.00000000       0.00000000       0.63075131
Gd       0.00000000       0.00000000       3.82484848       0.00000000       0.00000000      -0.63075131
2
Properties=species:S:1:pos:R:3:forces:R:3 energy=-21.782312583052583 pbc="F F F"
Gd       0.00000000       0.00000000       0.00000000       0.00000000       0.00000000       0.63876683
Gd       0.00000000       0.00000000       3.88363636       0.00000000       0.00000000      -0.63876683
2
Properties=species:S:1:pos:R:3:forces:R:3 energy=-21.74478896718164 pbc="F F F"
Gd       0.00000000       0.00000000       0.00000000       0.00000000       0.00000000       0.63595045
Gd       0.00000000       0.00000000       3.94242424       0.00000000       0.00000000      -0.63595045
2
Properties=species:S:1:pos:R:3:forces:R:3 energy=-21.707741184996205 pbc="F F F"
Gd       0.00000000       0.00000000       0.00000000       0.00000000       0.00000000       0.62298471
Gd       0.00000000       0.00000000       4.00121212       0.00000000       0.00000000      -0.62298471
2
Properties=species:S:1:pos:R:3:forces:R:3 energy=-21.671687889924282 pbc="F F F"
Gd       0.00000000       0.00000000       0.00000000       0.00000000       0.00000000       0.60261667
Gd       0.00000000       0.00000000       4.06000000       0.00000000       0.00000000      -0.60261667
2
Properties=species:S:1:pos:R:3:forces:R:3 energy=-21.6369648833509 pbc="F F F"
Gd       0.00000000       0.00000000       0.00000000       0.00000000       0.00000000       0.57829028
Gd       0.00000000       0.00000000       4.11878788       0.00000000       0.00000000      -0.57829028
2
Properties=species:S:1:pos:R:3:forces:R:3 energy=-21.603711813862834 pbc="F F F"
Gd       0.00000000       0.00000000       0.00000000       0.00000000       0.00000000       0.55299813
Gd       0.00000000       0.00000000       4.17757576       0.00000000       0.00000000      -0.55299813
2
Properties=species:S:1:pos:R:3:forces:R:3 energy=-21.571925646366765 pbc="F F F"
Gd       0.00000000       0.00000000       0.00000000       0.00000000       0.00000000       0.52861696
Gd       0.00000000       0.00000000       4.23636364       0.00000000       0.00000000      -0.52861696
2
Properties=species:S:1:pos:R:3:forces:R:3 energy=-21.54152935831829 pbc="F F F"
Gd       0.00000000       0.00000000       0.00000000       0.00000000       0.00000000       0.50572556
Gd       0.00000000       0.00000000       4.29515152       0.00000000       0.00000000      -0.50572556
2
Properties=species:S:1:pos:R:3:forces:R:3 energy=-21.51244451400462 pbc="F F F"
Gd       0.00000000       0.00000000       0.00000000       0.00000000       0.00000000       0.48385924
Gd       0.00000000       0.00000000       4.35393939       0.00000000       0.00000000      -0.48385924
2
Properties=species:S:1:pos:R:3:forces:R:3 energy=-21.484638897575262 pbc="F F F"
Gd       0.00000000       0.00000000       0.00000000       0.00000000       0.00000000       0.46202788
Gd       0.00000000       0.00000000       4.41272727       0.00000000       0.00000000      -0.46202788
2
Properties=species:S:1:pos:R:3:forces:R:3 energy=-21.45813810918927 pbc="F F F"
Gd       0.00000000       0.00000000       0.00000000       0.00000000       0.00000000       0.43937886
Gd       0.00000000       0.00000000       4.47151515       0.00000000       0.00000000      -0.43937886
2
Properties=species:S:1:pos:R:3:forces:R:3 energy=-21.43299881778487 pbc="F F F"
Gd       0.00000000       0.00000000       0.00000000       0.00000000       0.00000000       0.41576940
Gd       0.00000000       0.00000000       4.53030303       0.00000000       0.00000000      -0.41576940
2
Properties=species:S:1:pos:R:3:forces:R:3 energy=-21.409257281673323 pbc="F F F"
Gd       0.00000000       0.00000000       0.00000000       0.00000000       0.00000000       0.39207199
Gd       0.00000000       0.00000000       4.58909091       0.00000000       0.00000000      -0.39207199
2
Properties=species:S:1:pos:R:3:forces:R:3 energy=-21.38686652007562 pbc="F F F"
Gd       0.00000000       0.00000000       0.00000000       0.00000000       0.00000000       0.37010261
Gd       0.00000000       0.00000000       4.64787879       0.00000000       0.00000000      -0.37010261
2
Properties=species:S:1:pos:R:3:forces:R:3 energy=-21.365663742475927 pbc="F F F"
Gd       0.00000000       0.00000000       0.00000000       0.00000000       0.00000000       0.35210088
Gd       0.00000000       0.00000000       4.70666667       0.00000000       0.00000000      -0.35210088
2
Properties=species:S:1:pos:R:3:forces:R:3 energy=-21.34535329652547 pbc="F F F"
Gd       0.00000000       0.00000000       0.00000000       0.00000000       0.00000000       0.33992425
Gd       0.00000000       0.00000000       4.76545455       0.00000000       0.00000000      -0.33992425
2
Properties=species:S:1:pos:R:3:forces:R:3 energy=-21.325567614499764 pbc="F F F"
Gd       0.00000000       0.00000000       0.00000000       0.00000000       0.00000000       0.33415392
Gd       0.00000000       0.00000000       4.82424242       0.00000000       0.00000000      -0.33415392
2
Properties=species:S:1:pos:R:3:forces:R:3 energy=-21.30596450708584 pbc="F F F"
Gd       0.00000000       0.00000000       0.00000000       0.00000000       0.00000000       0.33345333
Gd       0.00000000       0.00000000       4.88303030       0.00000000       0.00000000      -0.33345333
2
Properties=species:S:1:pos:R:3:forces:R:3 energy=-21.286326187120018 pbc="F F F"
Gd       0.00000000       0.00000000       0.00000000       0.00000000       0.00000000       0.33457273
Gd       0.00000000       0.00000000       4.94181818       0.00000000       0.00000000      -0.33457273
2
Properties=species:S:1:pos:R:3:forces:R:3 energy=-21.266669921151205 pbc="F F F"
Gd       0.00000000       0.00000000       0.00000000       0.00000000       0.00000000       0.33356553
Gd       0.00000000       0.00000000       5.00060606       0.00000000       0.00000000      -0.33356553
2
Properties=species:S:1:pos:R:3:forces:R:3 energy=-21.2471831415735 pbc="F F F"
Gd       0.00000000       0.00000000       0.00000000       0.00000000       0.00000000       0.32890290
Gd       0.00000000       0.00000000       5.05939394       0.00000000       0.00000000      -0.32890290
2
Properties=species:S:1:pos:R:3:forces:R:3 energy=-21.227971473866067 pbc="F F F"
Gd       0.00000000       0.00000000       0.00000000       0.00000000       0.00000000       0.32590818
Gd       0.00000000       0.00000000       5.11818182       0.00000000       0.00000000      -0.32590818
2
Properties=species:S:1:pos:R:3:forces:R:3 energy=-21.208574251033436 pbc="F F F"
Gd       0.00000000       0.00000000       0.00000000       0.00000000       0.00000000       0.33773300
Gd       0.00000000       0.00000000       5.17696970       0.00000000       0.00000000      -0.33773300
2
Properties=species:S:1:pos:R:3:forces:R:3 energy=-21.187756549248114 pbc="F F F"
Gd       0.00000000       0.00000000       0.00000000       0.00000000       0.00000000       0.37465197
Gd       0.00000000       0.00000000       5.23575758       0.00000000       0.00000000      -0.37465197
2
Properties=species:S:1:pos:R:3:forces:R:3 energy=-21.164239512307606 pbc="F F F"
Gd       0.00000000       0.00000000       0.00000000       0.00000000       0.00000000       0.42522430
Gd       0.00000000       0.00000000       5.29454545       0.00000000       0.00000000      -0.42522430
2
Properties=species:S:1:pos:R:3:forces:R:3 energy=-21.13815948600981 pbc="F F F"
Gd       0.00000000       0.00000000       0.00000000       0.00000000       0.00000000       0.45567161
Gd       0.00000000       0.00000000       5.35333333       0.00000000       0.00000000      -0.45567161
2
Properties=species:S:1:pos:R:3:forces:R:3 energy=-21.11154662961132 pbc="F F F"
Gd       0.00000000       0.00000000       0.00000000       0.00000000       0.00000000       0.44278374
Gd       0.00000000       0.00000000       5.41212121       0.00000000       0.00000000      -0.44278374
2
Properties=species:S:1:pos:R:3:forces:R:3 energy=-21.08656048529355 pbc="F F F"
Gd       0.00000000       0.00000000       0.00000000       0.00000000       0.00000000       0.40778589
Gd       0.00000000       0.00000000       5.47090909       0.00000000       0.00000000      -0.40778589
2
Properties=species:S:1:pos:R:3:forces:R:3 energy=-21.062838773066584 pbc="F F F"
Gd       0.00000000       0.00000000       0.00000000       0.00000000       0.00000000       0.41139245
Gd       0.00000000       0.00000000       5.52969697       0.00000000       0.00000000      -0.41139245
2
Properties=species:S:1:pos:R:3:forces:R:3 energy=-21.03629568193496 pbc="F F F"
Gd       0.00000000       0.00000000       0.00000000       0.00000000       0.00000000       0.50942051
Gd       0.00000000       0.00000000       5.58848485       0.00000000       0.00000000      -0.50942051
2
Properties=species:S:1:pos:R:3:forces:R:3 energy=-21.00126183903594 pbc="F F F"
Gd       0.00000000       0.00000000       0.00000000       0.00000000       0.00000000       0.69071227
Gd       0.00000000       0.00000000       5.64727273       0.00000000       0.00000000      -0.69071227
2
Properties=species:S:1:pos:R:3:forces:R:3 energy=-20.955504394220284 pbc="F F F"
Gd       0.00000000       0.00000000       0.00000000       0.00000000       0.00000000       0.84926522
Gd       0.00000000       0.00000000       5.70606061       0.00000000       0.00000000      -0.84926522
2
Properties=species:S:1:pos:R:3:forces:R:3 energy=-20.904448042765292 pbc="F F F"
Gd       0.00000000       0.00000000       0.00000000       0.00000000       0.00000000       0.85042536
Gd       0.00000000       0.00000000       5.76484848       0.00000000       0.00000000      -0.85042536
2
Properties=species:S:1:pos:R:3:forces:R:3 energy=-20.85939730992473 pbc="F F F"
Gd       0.00000000       0.00000000       0.00000000       0.00000000       0.00000000       0.65548491
Gd       0.00000000       0.00000000       5.82363636       0.00000000       0.00000000      -0.65548491
2
Properties=species:S:1:pos:R:3:forces:R:3 energy=-20.829474143908463 pbc="F F F"
Gd       0.00000000       0.00000000       0.00000000       0.00000000       0.00000000       0.36296538
Gd       0.00000000       0.00000000       5.88242424       0.00000000       0.00000000      -0.36296538
2
Properties=species:S:1:pos:R:3:forces:R:3 energy=-20.81577009268016 pbc="F F F"
Gd       0.00000000       0.00000000       0.00000000       0.00000000       0.00000000       0.11999787
Gd       0.00000000       0.00000000       5.94121212       0.00000000       0.00000000      -0.11999787
2
Properties=species:S:1:pos:R:3:forces:R:3 energy=-20.812349493310457 pbc="F F F"
Gd       0.00000000       0.00000000       0.00000000       0.00000000       0.00000000       0.02710294
Gd       0.00000000       0.00000000       6.00000000       0.00000000       0.00000000      -0.02710294
