2
Properties=species:S:1:pos:R:3:forces:R:3 energy=12154.289244046342 pbc="F F F"
Gd       0.00000000       0.00000000       0.00000000       0.00000000       0.00000000 -209262.43750000
Gd       0.00000000       0.00000000       0.18000000       0.00000000       0.00000000  209262.43750000
2
Properties=species:S:1:pos:R:3:forces:R:3 energy=4798.445982327593 pbc="F F F"
Gd       0.00000000       0.00000000       0.00000000       0.00000000       0.00000000  -70194.92968750
Gd       0.00000000       0.00000000       0.23878788       0.00000000       0.00000000   70194.92968750
2
Properties=species:S:1:pos:R:3:forces:R:3 energy=2138.3009627963424 pbc="F F F"
Gd       0.00000000       0.00000000       0.00000000       0.00000000       0.00000000  -27721.94531250
Gd       0.00000000       0.00000000       0.29757576       0.00000000       0.00000000   27721.94531250
2
Properties=species:S:1:pos:R:3:forces:R:3 energy=1037.4992049838427 pbc="F F F"
Gd       0.00000000       0.00000000       0.00000000       0.00000000       0.00000000  -12113.40722656
Gd       0.00000000       0.00000000       0.35636364       0.00000000       0.00000000   12113.40722656
2
Properties=species:S:1:pos:R:3:forces:R:3 energy=540.5178207128345 pbc="F F F"
Gd       0.00000000       0.00000000       0.00000000       0.00000000       0.00000000   -5684.55712891
Gd       0.00000000       0.00000000       0.41515152       0.00000000       0.00000000    5684.55712891
2
Properties=species:S:1:pos:R:3:forces:R:3 energy=301.2096236976858 pbc="F F F"
Gd       0.00000000       0.00000000       0.00000000       0.00000000       0.00000000   -2822.82495117
Gd       0.00000000       0.00000000       0.47393939       0.00000000       0.00000000    2822.82495117
2
Properties=species:S:1:pos:R:3:forces:R:3 energy=179.7648910506771 pbc="F F F"
Gd       0.00000000       0.00000000       0.00000000       0.00000000       0.00000000   -1469.79956055
Gd       0.00000000       0.00000000       0.53272727       0.00000000       0.00000000    1469.79956055
2
Properties=species:S:1:pos:R:3:forces:R:3 energy=115.37351077863237 pbc="F F F"
Gd       0.00000000       0.00000000       0.00000000       0.00000000       0.00000000    -795.54162598
Gd       0.00000000       0.00000000       0.59151515       0.00000000       0.00000000     795.54162598
2
Properties=species:S:1:pos:R:3:forces:R:3 energy=80.05352639328237 pbc="F F F"
Gd       0.00000000       0.00000000       0.00000000       0.00000000       0.00000000    -442.35473633
Gd       0.00000000       0.00000000       0.65030303       0.00000000       0.00000000     442.35473633
2
Properties=species:S:1:pos:R:3:forces:R:3 energy=60.301794603087146 pbc="F F F"
Gd       0.00000000       0.00000000       0.00000000       0.00000000       0.00000000    -248.04466248
Gd       0.00000000       0.00000000       0.70909091       0.00000000       0.00000000     248.04466248
2
Properties=species:S:1:pos:R:3:forces:R:3 energy=49.29481384647523 pbc="F F F"
Gd       0.00000000       0.00000000       0.00000000       0.00000000       0.00000000    -136.36083984
Gd       0.00000000       0.00000000       0.76787879       0.00000000       0.00000000     136.36083984
2
Properties=species:S:1:pos:R:3:forces:R:3 energy=43.37055103605628 pbc="F F F"
Gd       0.00000000       0.00000000       0.00000000       0.00000000       0.00000000     -71.13094330
Gd       0.00000000       0.00000000       0.82666667       0.00000000       0.00000000      71.13094330
2
Properties=species:S:1:pos:R:3:forces:R:3 energy=40.36333772229533 pbc="F F F"
Gd       0.00000000       0.00000000       0.00000000       0.00000000       0.00000000     -35.09883499
Gd       0.00000000       0.00000000       0.88545455       0.00000000       0.00000000      35.09883499
2
Properties=species:S:1:pos:R:3:forces:R:3 energy=38.87697183046133 pbc="F F F"
Gd       0.00000000       0.00000000       0.00000000       0.00000000       0.00000000     -17.80302238
Gd       0.00000000       0.00000000       0.94424242       0.00000000       0.00000000      17.80302238
2
Properties=species:S:1:pos:R:3:forces:R:3 energy=38.07708757284852 pbc="F F F"
Gd       0.00000000       0.00000000       0.00000000       0.00000000       0.00000000     -10.50069046
Gd       0.00000000       0.00000000       1.00303030       0.00000000       0.00000000      10.50069046
2
Properties=species:S:1:pos:R:3:forces:R:3 energy=37.54679196309273 pbc="F F F"
Gd       0.00000000       0.00000000       0.00000000       0.00000000       0.00000000      -8.23516941
Gd       0.00000000       0.00000000       1.06181818       0.00000000       0.00000000       8.23516941
2
Properties=species:S:1:pos:R:3:forces:R:3 energy=37.023317279138006 pbc="F F F"
Gd       0.00000000       0.00000000       0.00000000       0.00000000       0.00000000     -10.36402130
Gd       0.00000000       0.00000000       1.12060606       0.00000000       0.00000000      10.36402130
2
Properties=species:S:1:pos:R:3:forces:R:3 energy=36.22949528507243 pbc="F F F"
Gd       0.00000000       0.00000000       0.00000000       0.00000000       0.00000000     -17.50819206
Gd       0.00000000       0.00000000       1.17939394       0.00000000       0.00000000      17.50819206
2
Properties=species:S:1:pos:R:3:forces:R:3 energy=34.86428922854259 pbc="F F F"
Gd       0.00000000       0.00000000       0.00000000       0.00000000       0.00000000     -29.74342918
Gd       0.00000000       0.00000000       1.23818182       0.00000000       0.00000000      29.74342918
2
Properties=species:S:1:pos:R:3:forces:R:3 energy=32.65196525049358 pbc="F F F"
Gd       0.00000000       0.00000000       0.00000000       0.00000000       0.00000000     -46.04001617
Gd       0.00000000       0.00000000       1.29696970       0.00000000       0.00000000      46.04001617
2
Properties=species:S:1:pos:R:3:forces:R:3 energy=29.414182521423566 pbc="F F F"
Gd       0.00000000       0.00000000       0.00000000       0.00000000       0.00000000     -64.21750641
Gd       0.00000000       0.00000000       1.35575758       0.00000000       0.00000000      64.21750641
2
Properties=species:S:1:pos:R:3:forces:R:3 energy=25.112035083304594 pbc="F F F"
Gd       0.00000000       0.00000000       0.00000000       0.00000000       0.00000000     -81.87554169
Gd       0.00000000       0.00000000       1.41454545       0.00000000       0.00000000      81.87554169
2
Properties=species:S:1:pos:R:3:forces:R:3 energy=19.840917165692822 pbc="F F F"
Gd       0.00000000       0.00000000       0.00000000       0.00000000       0.00000000     -96.79831696
Gd       0.00000000       0.00000000       1.47333333       0.00000000       0.00000000      96.79831696
2
Properties=species:S:1:pos:R:3:forces:R:3 energy=13.834456277993516 pbc="F F F"
Gd       0.00000000       0.00000000       0.00000000       0.00000000       0.00000000    -106.41478729
Gd       0.00000000       0.00000000       1.53212121       0.00000000       0.00000000     106.41478729
2
Properties=species:S:1:pos:R:3:forces:R:3 energy=7.489354378670631 pbc="F F F"
Gd       0.00000000       0.00000000       0.00000000       0.00000000       0.00000000    -107.89807129
Gd       0.00000000       0.00000000       1.59090909       0.00000000       0.00000000     107.89807129
2
Properties=species:S:1:pos:R:3:forces:R:3 energy=1.336745328533831 pbc="F F F"
Gd       0.00000000       0.00000000       0.00000000       0.00000000       0.00000000     -99.90459442
Gd       0.00000000       0.00000000       1.64969697       0.00000000       0.00000000      99.90459442
2
Properties=species:S:1:pos:R:3:forces:R:3 energy=-4.115497109177441 pbc="F F F"
Gd       0.00000000       0.00000000       0.00000000       0.00000000       0.00000000     -84.79519653
Gd       0.00000000       0.00000000       1.70848485       0.00000000       0.00000000      84.79519653
2
Properties=species:S:1:pos:R:3:forces:R:3 energy=-8.594732452765928 pbc="F F F"
Gd       0.00000000       0.00000000       0.00000000       0.00000000       0.00000000     -67.67456055
Gd       0.00000000       0.00000000       1.76727273       0.00000000       0.00000000      67.67456055
2
Properties=species:S:1:pos:R:3:forces:R:3 energy=-12.112154639917968 pbc="F F F"
Gd       0.00000000       0.00000000       0.00000000       0.00000000       0.00000000     -52.46675491
Gd       0.00000000       0.00000000       1.82606061       0.00000000       0.00000000      52.46675491
2
Properties=species:S:1:pos:R:3:forces:R:3 energy=-14.819464333697736 pbc="F F F"
Gd       0.00000000       0.00000000       0.00000000       0.00000000       0.00000000     -40.06318665
Gd       0.00000000       0.00000000       1.88484848       0.00000000       0.00000000      40.06318665
2
Properties=species:S:1:pos:R:3:forces:R:3 energy=-16.86543244631296 pbc="F F F"
Gd       0.00000000       0.00000000       0.00000000       0.00000000       0.00000000     -29.86343193
Gd       0.00000000       0.00000000       1.94363636       0.00000000       0.00000000      29.86343193
2
Properties=species:S:1:pos:R:3:forces:R:3 energy=-18.367808733793435 pbc="F F F"
Gd       0.00000000       0.00000000       0.00000000       0.00000000       0.00000000     -21.57370949
Gd       0.00000000       0.00000000       2.00242424       0.00000000       0.00000000      21.57370949
2
Properties=species:S:1:pos:R:3:forces:R:3 energy=-19.44120343097678 pbc="F F F"
Gd       0.00000000       0.00000000       0.00000000       0.00000000       0.00000000     -15.27405643
Gd       0.00000000       0.00000000       2.06121212       0.00000000       0.00000000      15.27405643
2
Properties=species:S:1:pos:R:3:forces:R:3 energy=-20.199492367449245 pbc="F F F"
Gd       0.00000000       0.00000000       0.00000000       0.00000000       0.00000000     -10.79113007
Gd       0.00000000       0.00000000       2.12000000       0.00000000       0.00000000      10.79113007
2
Properties=species:S:1:pos:R:3:forces:R:3 energy=-20.736259059014362 pbc="F F F"
Gd       0.00000000       0.00000000       0.00000000       0.00000000       0.00000000      -7.65110826
Gd       0.00000000       0.00000000       2.17878788       0.00000000       0.00000000       7.65110826
2
Properties=species:S:1:pos:R:3:forces:R:3 energy=-21.11631076395341 pbc="F F F"
Gd       0.00000000       0.00000000       0.00000000       0.00000000       0.00000000      -5.39733696
Gd       0.00000000       0.00000000       2.23757576       0.00000000       0.00000000       5.39733696
2
Properties=species:S:1:pos:R:3:forces:R:3 energy=-21.382689959956057 pbc="F F F"
Gd       0.00000000       0.00000000       0.00000000       0.00000000       0.00000000      -3.75222254
Gd       0.00000000       0.00000000       2.29636364       0.00000000       0.00000000       3.75222254
2
Properties=species:S:1:pos:R:3:forces:R:3 energy=-21.566672583290206 pbc="F F F"
Gd       0.00000000       0.00000000       0.00000000       0.00000000       0.00000000      -2.57773447
Gd       0.00000000       0.00000000       2.35515152       0.00000000       0.00000000       2.57773447
2
Properties=species:S:1:pos:R:3:forces:R:3 energy=-21.693352834297876 pbc="F F F"
Gd       0.00000000       0.00000000       0.00000000       0.00000000       0.00000000      -1.79021406
Gd       0.00000000       0.00000000       2.41393939       0.00000000       0.00000000       1.79021406
2
Properties=species:S:1:pos:R:3:forces:R:3 energy=-21.783209028259375 pbc="F F F"
Gd       0.00000000       0.00000000       0.00000000       0.00000000       0.00000000      -1.31127000
Gd       0.00000000       0.00000000       2.47272727       0.00000000       0.00000000       1.31127000
2
Properties=species:S:1:pos:R:3:forces:R:3 energy=-21.851920477253252 pbc="F F F"
Gd       0.00000000       0.00000000       0.00000000       0.00000000       0.00000000      -1.05655348
Gd       0.00000000       0.00000000       2.53151515       0.00000000       0.00000000       1.05655348
2
Properties=species:S:1:pos:R:3:forces:R:3 energy=-21.910201626852988 pbc="F F F"
Gd       0.00000000       0.00000000       0.00000000       0.00000000       0.00000000      -0.94353038
Gd       0.00000000       0.00000000       2.59030303       0.00000000       0.00000000       0.94353038
2
Properties=species:S:1:pos:R:3:forces:R:3 energy=-21.96424827433675 pbc="F F F"
Gd       0.00000000       0.00000000       0.00000000       0.00000000       0.00000000      -0.90217018
Gd       0.00000000       0.00000000       2.64909091       0.00000000       0.00000000       0.90217018
2
Properties=species:S:1:pos:R:3:forces:R:3 energy=-22.01663415559335 pbc="F F F"
Gd       0.00000000       0.00000000       0.00000000       0.00000000       0.00000000      -0.87970752
Gd       0.00000000       0.00000000       2.70787879       0.00000000       0.00000000       0.87970752
2
Properties=species:S:1:pos:R:3:forces:R:3 energy=-22.067319736144036 pbc="F F F"
Gd       0.00000000       0.00000000       0.00000000       0.00000000       0.00000000      -0.83933014
Gd       0.00000000       0.00000000       2.76666667       0.00000000       0.00000000       0.83933014
2
Properties=species:S:1:pos:R:3:forces:R:3 energy=-22.114501146010827 pbc="F F F"
Gd       0.00000000       0.00000000       0.00000000       0.00000000       0.00000000      -0.75754923
Gd       0.00000000       0.00000000       2.82545455       0.00000000       0.00000000       0.75754923
2
Properties=species:S:1:pos:R:3:forces:R:3 energy=-22.155359704372785 pbc="F F F"
Gd       0.00000000       0.00000000       0.00000000       0.00000000       0.00000000      -0.62362766
Gd       0.00000000       0.00000000       2.88424242       0.00000000       0.00000000       0.62362766
2
Properties=species:S:1:pos:R:3:forces:R:3 energy=-22.18684961020185 pbc="F F F"
Gd       0.00000000       0.00000000       0.00000000       0.00000000       0.00000000      -0.44044286
Gd       0.00000000       0.00000000       2.94303030       0.00000000       0.00000000       0.44044286
2
Properties=species:S:1:pos:R:3:forces:R:3 energy=-22.206483877605507 pbc="F F F"
Gd       0.00000000       0.00000000       0.00000000       0.00000000       0.00000000      -0.22386344
Gd       0.00000000       0.00000000       3.00181818       0.00000000       0.00000000       0.22386344
2
Properties=species:S:1:pos:R:3:forces:R:3 energy=-22.213001692436368 pbc="F F F"
Gd       0.00000000       0.00000000       0.00000000       0.00000000       0.00000000       0.00127251
Gd       0.00000000       0.00000000       3.06060606       0.00000000       0.00000000      -0.00127251
2
Properties=species:S:1:pos:R:3:forces:R:3 energy=-22.20669493637575 pbc="F F F"
Gd       0.00000000       0.00000000       0.00000000       0.00000000       0.00000000       0.20818907
Gd       0.00000000       0.00000000       3.11939394       0.00000000       0.00000000      -0.20818907
2
Properties=species:S:1:pos:R:3:forces:R:3 energy=-22.18930093191514 pbc="F F F"
Gd       0.00000000       0.00000000       0.00000000       0.00000000       0.00000000       0.37581795
Gd       0.00000000       0.00000000       3.17818182       0.00000000       0.00000000      -0.37581795
2
Properties=species:S:1:pos:R:3:forces:R:3 energy=-22.163489663349253 pbc="F F F"
Gd       0.00000000       0.00000000       0.00000000       0.00000000       0.00000000       0.49384770
Gd       0.00000000       0.00000000       3.23696970       0.00000000       0.00000000      -0.49384770
2
Properties=species:S:1:pos:R:3:forces:R:3 energy=-22.13219425305639 pbc="F F F"
Gd       0.00000000       0.00000000       0.00000000       0.00000000       0.00000000       0.56330252
Gd       0.00000000       0.00000000       3.29575758       0.00000000       0.00000000      -0.56330252
2
Properties=species:S:1:pos:R:3:forces:R:3 energy=-22.098032958834988 pbc="F F F"
Gd       0.00000000       0.00000000       0.00000000       0.00000000       0.00000000       0.59337372
Gd       0.00000000       0.00000000       3.35454545       0.00000000       0.00000000      -0.59337372
2
Properties=species:S:1:pos:R:3:forces:R:3 energy=-22.06294491466424 pbc="F F F"
Gd       0.00000000       0.00000000       0.00000000       0.00000000       0.00000000       0.59703773
Gd       0.00000000       0.00000000       3.41333333       0.00000000       0.00000000      -0.59703773
2
Properties=species:S:1:pos:R:3:forces:R:3 energy=-22.028090973917777 pbc="F F F"
Gd       0.00000000       0.00000000       0.00000000       0.00000000       0.00000000       0.58763725
Gd       0.00000000       0.00000000       3.47212121       0.00000000       0.00000000      -0.58763725
2
Properties=species:S:1:pos:R:3:forces:R:3 energy=-21.993880418580176 pbc="F F F"
Gd       0.00000000       0.00000000       0.00000000       0.00000000       0.00000000       0.57677764
Gd       0.00000000       0.00000000       3.53090909       0.00000000       0.00000000      -0.57677764
2
Properties=species:S:1:pos:R:3:forces:R:3 energy=-21.9601370126196 pbc="F F F"
Gd       0.00000000       0.00000000       0.00000000       0.00000000       0.00000000       0.57275945
Gd       0.00000000       0.00000000       3.58969697       0.00000000       0.00000000      -0.57275945
2
Properties=species:S:1:pos:R:3:forces:R:3 energy=-21.92632771276135 pbc="F F F"
Gd       0.00000000       0.00000000       0.00000000       0.00000000       0.00000000       0.57926649
Gd       0.00000000       0.00000000       3.64848485       0.00000000       0.00000000      -0.57926649
2
Properties=species:S:1:pos:R:3:forces:R:3 energy=-21.891849131914505 pbc="F F F"
Gd       0.00000000       0.00000000       0.00000000       0.00000000       0.00000000       0.59490329
Gd       0.00000000       0.00000000       3.70727273       0.00000000       0.00000000      -0.59490329
2
Properties=species:S:1:pos:R:3:forces:R:3 energy=-21.856305568577213 pbc="F F F"
Gd       0.00000000       0.00000000       0.00000000       0.00000000       0.00000000       0.61432183
Gd       0.00000000       0.00000000       3.76606061       0.00000000       0.00000000      -0.61432183
2
Properties=species:S:1:pos:R:3:forces:R:3 energy=-21.819679166346255 pbc="F F F"
Gd       0.00000000       0.00000000       0.00000000       0.00000000       0.00000000       0.63075137
Gd       0.00000000       0.00000000       3.82484848       0.00000000       0.00000000      -0.63075137
2
Properties=species:S:1:pos:R:3:forces:R:3 energy=-21.782312583052583 pbc="F F F"
Gd       0.00000000       0.00000000       0.00000000       0.00000000       0.00000000       0.63876659
Gd       0.00000000       0.00000000       3.88363636       0.00000000       0.00000000      -0.63876659
2
Properties=species:S:1:pos:R:3:forces:R:3 energy=-21.74478896718164 pbc="F F F"
Gd       0.00000000       0.00000000       0.00000000       0.00000000       0.00000000       0.63594973
Gd       0.00000000       0.00000000       3.94242424       0.00000000       0.00000000      -0.63594973
2
Properties=species:S:1:pos:R:3:forces:R:3 energy=-21.70774119133185 pbc="F F F"
Gd       0.00000000       0.00000000       0.00000000       0.00000000       0.00000000       0.62298435
Gd       0.00000000       0.00000000       4.00121212       0.00000000       0.00000000      -0.62298435
2
Properties=species:S:1:pos:R:3:forces:R:3 energy=-21.671687889924282 pbc="F F F"
Gd       0.00000000       0.00000000       0.00000000       0.00000000       0.00000000       0.60261607
Gd       0.00000000       0.00000000       4.06000000       0.00000000       0.00000000      -0.60261607
2
Properties=species:S:1:pos:R:3:forces:R:3 energy=-21.6369648833509 pbc="F F F"
Gd       0.00000000       0.00000000       0.00000000       0.00000000       0.00000000       0.57828987
Gd       0.00000000       0.00000000       4.11878788       0.00000000       0.00000000      -0.57828987
2
Properties=species:S:1:pos:R:3:forces:R:3 energy=-21.603711826534123 pbc="F F F"
Gd       0.00000000       0.00000000       0.00000000       0.00000000       0.00000000       0.55299830
Gd       0.00000000       0.00000000       4.17757576       0.00000000       0.00000000      -0.55299830
2
Properties=species:S:1:pos:R:3:forces:R:3 energy=-21.571925659038055 pbc="F F F"
Gd       0.00000000       0.00000000       0.00000000       0.00000000       0.00000000       0.52861613
Gd       0.00000000       0.00000000       4.23636364       0.00000000       0.00000000      -0.52861613
2
Properties=species:S:1:pos:R:3:forces:R:3 energy=-21.54152935831829 pbc="F F F"
Gd       0.00000000       0.00000000       0.00000000       0.00000000       0.00000000       0.50572622
Gd       0.00000000       0.00000000       4.29515152       0.00000000       0.00000000      -0.50572622
2
Properties=species:S:1:pos:R:3:forces:R:3 energy=-21.51244451400462 pbc="F F F"
Gd       0.00000000       0.00000000       0.00000000       0.00000000       0.00000000       0.48385888
Gd       0.00000000       0.00000000       4.35393939       0.00000000       0.00000000      -0.48385888
2
Properties=species:S:1:pos:R:3:forces:R:3 energy=-21.484638910246552 pbc="F F F"
Gd       0.00000000       0.00000000       0.00000000       0.00000000       0.00000000       0.46202686
Gd       0.00000000       0.00000000       4.41272727       0.00000000       0.00000000      -0.46202686
2
Properties=species:S:1:pos:R:3:forces:R:3 energy=-21.45813810918927 pbc="F F F"
Gd       0.00000000       0.00000000       0.00000000       0.00000000       0.00000000       0.43937898
Gd       0.00000000       0.00000000       4.47151515       0.00000000       0.00000000      -0.43937898
2
Properties=species:S:1:pos:R:3:forces:R:3 energy=-21.43299881778487 pbc="F F F"
Gd       0.00000000       0.00000000       0.00000000       0.00000000       0.00000000       0.41576883
Gd       0.00000000       0.00000000       4.53030303       0.00000000       0.00000000      -0.41576883
2
Properties=species:S:1:pos:R:3:forces:R:3 energy=-21.40925729434461 pbc="F F F"
Gd       0.00000000       0.00000000       0.00000000       0.00000000       0.00000000       0.39207307
Gd       0.00000000       0.00000000       4.58909091       0.00000000       0.00000000      -0.39207307
2
Properties=species:S:1:pos:R:3:forces:R:3 energy=-21.38686652007562 pbc="F F F"
Gd       0.00000000       0.00000000       0.00000000       0.00000000       0.00000000       0.37010264
Gd       0.00000000       0.00000000       4.64787879       0.00000000       0.00000000      -0.37010264
2
Properties=species:S:1:pos:R:3:forces:R:3 energy=-21.365663742475927 pbc="F F F"
Gd       0.00000000       0.00000000       0.00000000       0.00000000       0.00000000       0.35209975
Gd       0.00000000       0.00000000       4.70666667       0.00000000       0.00000000      -0.35209975
2
Properties=species:S:1:pos:R:3:forces:R:3 energy=-21.34535329652547 pbc="F F F"
Gd       0.00000000       0.00000000       0.00000000       0.00000000       0.00000000       0.33992395
Gd       0.00000000       0.00000000       4.76545455       0.00000000       0.00000000      -0.33992395
2
Properties=species:S:1:pos:R:3:forces:R:3 energy=-21.325569521848397 pbc="F F F"
Gd       0.00000000       0.00000000       0.00000000       0.00000000       0.00000000       0.33415499
Gd       0.00000000       0.00000000       4.82424242       0.00000000       0.00000000      -0.33415499
2
Properties=species:S:1:pos:R:3:forces:R:3 energy=-21.30596450708584 pbc="F F F"
Gd       0.00000000       0.00000000       0.00000000       0.00000000       0.00000000       0.33345413
Gd       0.00000000       0.00000000       4.88303030       0.00000000       0.00000000      -0.33345413
2
Properties=species:S:1:pos:R:3:forces:R:3 energy=-21.286326187120018 pbc="F F F"
Gd       0.00000000       0.00000000       0.00000000       0.00000000       0.00000000       0.33457482
Gd       0.00000000       0.00000000       4.94181818       0.00000000       0.00000000      -0.33457482
2
Properties=species:S:1:pos:R:3:forces:R:3 energy=-21.266668013802573 pbc="F F F"
Gd       0.00000000       0.00000000       0.00000000       0.00000000       0.00000000       0.33356735
Gd       0.00000000       0.00000000       5.00060606       0.00000000       0.00000000      -0.33356735
2
Properties=species:S:1:pos:R:3:forces:R:3 energy=-21.2471831415735 pbc="F F F"
Gd       0.00000000       0.00000000       0.00000000       0.00000000       0.00000000       0.32890052
Gd       0.00000000       0.00000000       5.05939394       0.00000000       0.00000000      -0.32890052
2
Properties=species:S:1:pos:R:3:forces:R:3 energy=-21.227971473866067 pbc="F F F"
Gd       0.00000000       0.00000000       0.00000000       0.00000000       0.00000000       0.32590818
Gd       0.00000000       0.00000000       5.11818182       0.00000000       0.00000000      -0.32590818
2
Properties=species:S:1:pos:R:3:forces:R:3 energy=-21.208574263704723 pbc="F F F"
Gd       0.00000000       0.00000000       0.00000000       0.00000000       0.00000000       0.33773345
Gd       0.00000000       0.00000000       5.17696970       0.00000000       0.00000000      -0.33773345
2
Properties=species:S:1:pos:R:3:forces:R:3 energy=-21.187756549248114 pbc="F F F"
Gd       0.00000000       0.00000000       0.00000000       0.00000000       0.00000000       0.37465337
Gd       0.00000000       0.00000000       5.23575758       0.00000000       0.00000000      -0.37465337
2
Properties=species:S:1:pos:R:3:forces:R:3 energy=-21.164239512307606 pbc="F F F"
Gd       0.00000000       0.00000000       0.00000000       0.00000000       0.00000000       0.42522860
Gd       0.00000000       0.00000000       5.29454545       0.00000000       0.00000000      -0.42522860
2
Properties=species:S:1:pos:R:3:forces:R:3 energy=-21.138159498681098 pbc="F F F"
Gd       0.00000000       0.00000000       0.00000000       0.00000000       0.00000000       0.45567667
Gd       0.00000000       0.00000000       5.35333333       0.00000000       0.00000000      -0.45567667
2
Properties=species:S:1:pos:R:3:forces:R:3 energy=-21.111542814914053 pbc="F F F"
Gd       0.00000000       0.00000000       0.00000000       0.00000000       0.00000000       0.44277573
Gd       0.00000000       0.00000000       5.41212121       0.00000000       0.00000000      -0.44277573
2
Properties=species:S:1:pos:R:3:forces:R:3 energy=-21.08656048529355 pbc="F F F"
Gd       0.00000000       0.00000000       0.00000000       0.00000000       0.00000000       0.40778834
Gd       0.00000000       0.00000000       5.47090909       0.00000000       0.00000000      -0.40778834
2
Properties=species:S:1:pos:R:3:forces:R:3 energy=-21.062838792073517 pbc="F F F"
Gd       0.00000000       0.00000000       0.00000000       0.00000000       0.00000000       0.41138598
Gd       0.00000000       0.00000000       5.52969697       0.00000000       0.00000000      -0.41138598
2
Properties=species:S:1:pos:R:3:forces:R:3 energy=-21.03629568193496 pbc="F F F"
Gd       0.00000000       0.00000000       0.00000000       0.00000000       0.00000000       0.50941539
Gd       0.00000000       0.00000000       5.58848485       0.00000000       0.00000000      -0.50941539
2
Properties=species:S:1:pos:R:3:forces:R:3 energy=-21.00123513615508 pbc="F F F"
Gd       0.00000000       0.00000000       0.00000000       0.00000000       0.00000000       0.69096309
Gd       0.00000000       0.00000000       5.64727273       0.00000000       0.00000000      -0.69096309
2
Properties=species:S:1:pos:R:3:forces:R:3 energy=-20.955504406891574 pbc="F F F"
Gd       0.00000000       0.00000000       0.00000000       0.00000000       0.00000000       0.84931386
Gd       0.00000000       0.00000000       5.70606061       0.00000000       0.00000000      -0.84931386
2
Properties=species:S:1:pos:R:3:forces:R:3 energy=-20.904448042765292 pbc="F F F"
Gd       0.00000000       0.00000000       0.00000000       0.00000000       0.00000000       0.85040510
Gd       0.00000000       0.00000000       5.76484848       0.00000000       0.00000000      -0.85040510
2
Properties=species:S:1:pos:R:3:forces:R:3 energy=-20.859441178943285 pbc="F F F"
Gd       0.00000000       0.00000000       0.00000000       0.00000000       0.00000000       0.65527475
Gd       0.00000000       0.00000000       5.82363636       0.00000000       0.00000000      -0.65527475
2
Properties=species:S:1:pos:R:3:forces:R:3 energy=-20.82947415341193 pbc="F F F"
Gd       0.00000000       0.00000000       0.00000000       0.00000000       0.00000000       0.36274779
Gd       0.00000000       0.00000000       5.88242424       0.00000000       0.00000000      -0.36274779
2
Properties=species:S:1:pos:R:3:forces:R:3 energy=-20.81577009268016 pbc="F F F"
Gd       0.00000000       0.00000000       0.00000000       0.00000000       0.00000000       0.11986644
Gd       0.00000000       0.00000000       5.94121212       0.00000000       0.00000000      -0.11986644
2
Properties=species:S:1:pos:R:3:forces:R:3 energy=-20.812349493310457 pbc="F F F"
Gd       0.00000000       0.00000000       0.00000000       0.00000000       0.00000000       0.02710294
Gd       0.00000000       0.00000000       6.00000000       0.00000000       0.00000000      -0.02710294
