2
Properties=species:S:1:pos:R:3:forces:R:3 energy=16449.617404851262 pbc="F F F"
Hg       0.00000000       0.00000000       0.00000000       0.00000000       0.00000000 -291097.68750000
Hg       0.00000000       0.00000000       0.18000000       0.00000000       0.00000000  291097.68750000
2
Properties=species:S:1:pos:R:3:forces:R:3 energy=6317.203342351262 pbc="F F F"
Hg       0.00000000       0.00000000       0.00000000       0.00000000       0.00000000  -95318.02343750
Hg       0.00000000       0.00000000       0.23878788       0.00000000       0.00000000   95318.02343750
2
Properties=species:S:1:pos:R:3:forces:R:3 energy=2743.2724341481376 pbc="F F F"
Hg       0.00000000       0.00000000       0.00000000       0.00000000       0.00000000  -36696.70312500
Hg       0.00000000       0.00000000       0.29757576       0.00000000       0.00000000   36696.70312500
2
Properties=species:S:1:pos:R:3:forces:R:3 energy=1302.264133373223 pbc="F F F"
Hg       0.00000000       0.00000000       0.00000000       0.00000000       0.00000000  -15626.60351562
Hg       0.00000000       0.00000000       0.35636364       0.00000000       0.00000000   15626.60351562
2
Properties=species:S:1:pos:R:3:forces:R:3 energy=668.0979346459222 pbc="F F F"
Hg       0.00000000       0.00000000       0.00000000       0.00000000       0.00000000   -7153.78173828
Hg       0.00000000       0.00000000       0.41515152       0.00000000       0.00000000    7153.78173828
2
Properties=species:S:1:pos:R:3:forces:R:3 energy=370.18405526406224 pbc="F F F"
Hg       0.00000000       0.00000000       0.00000000       0.00000000       0.00000000   -3464.84619141
Hg       0.00000000       0.00000000       0.47393939       0.00000000       0.00000000    3464.84619141
2
Properties=species:S:1:pos:R:3:forces:R:3 energy=223.0630378301823 pbc="F F F"
Hg       0.00000000       0.00000000       0.00000000       0.00000000       0.00000000   -1747.23522949
Hg       0.00000000       0.00000000       0.53272727       0.00000000       0.00000000    1747.23522949
2
Properties=species:S:1:pos:R:3:forces:R:3 energy=148.23895645363336 pbc="F F F"
Hg       0.00000000       0.00000000       0.00000000       0.00000000       0.00000000    -891.52618408
Hg       0.00000000       0.00000000       0.59151515       0.00000000       0.00000000     891.52618408
2
Properties=species:S:1:pos:R:3:forces:R:3 energy=110.62665946521999 pbc="F F F"
Hg       0.00000000       0.00000000       0.00000000       0.00000000       0.00000000    -432.40789795
Hg       0.00000000       0.00000000       0.65030303       0.00000000       0.00000000     432.40789795
2
Properties=species:S:1:pos:R:3:forces:R:3 energy=93.66302889665641 pbc="F F F"
Hg       0.00000000       0.00000000       0.00000000       0.00000000       0.00000000    -167.24348450
Hg       0.00000000       0.00000000       0.70909091       0.00000000       0.00000000     167.24348450
2
Properties=species:S:1:pos:R:3:forces:R:3 energy=88.98241077525034 pbc="F F F"
Hg       0.00000000       0.00000000       0.00000000       0.00000000       0.00000000      -4.94808865
Hg       0.00000000       0.00000000       0.76787879       0.00000000       0.00000000       4.94808865
2
Properties=species:S:1:pos:R:3:forces:R:3 energy=91.76830732044219 pbc="F F F"
Hg       0.00000000       0.00000000       0.00000000       0.00000000       0.00000000      89.40435028
Hg       0.00000000       0.00000000       0.82666667       0.00000000       0.00000000     -89.40435028
2
Properties=species:S:1:pos:R:3:forces:R:3 energy=98.29903124384779 pbc="F F F"
Hg       0.00000000       0.00000000       0.00000000       0.00000000       0.00000000     122.73111725
Hg       0.00000000       0.00000000       0.88545455       0.00000000       0.00000000    -122.73111725
2
Properties=species:S:1:pos:R:3:forces:R:3 energy=105.06887578686818 pbc="F F F"
Hg       0.00000000       0.00000000       0.00000000       0.00000000       0.00000000      98.73664093
Hg       0.00000000       0.00000000       0.94424242       0.00000000       0.00000000     -98.73664093
2
Properties=species:S:1:pos:R:3:forces:R:3 energy=109.01390667718447 pbc="F F F"
Hg       0.00000000       0.00000000       0.00000000       0.00000000       0.00000000      29.40950775
Hg       0.00000000       0.00000000       1.00303030       0.00000000       0.00000000     -29.40950775
2
Properties=species:S:1:pos:R:3:forces:R:3 energy=108.04251018644707 pbc="F F F"
Hg       0.00000000       0.00000000       0.00000000       0.00000000       0.00000000     -64.41030121
Hg       0.00000000       0.00000000       1.06181818       0.00000000       0.00000000      64.41030121
2
Properties=species:S:1:pos:R:3:forces:R:3 energy=101.50423472102403 pbc="F F F"
Hg       0.00000000       0.00000000       0.00000000       0.00000000       0.00000000    -154.79534912
Hg       0.00000000       0.00000000       1.12060606       0.00000000       0.00000000     154.79534912
2
Properties=species:S:1:pos:R:3:forces:R:3 energy=90.47551926075165 pbc="F F F"
Hg       0.00000000       0.00000000       0.00000000       0.00000000       0.00000000    -214.13714600
Hg       0.00000000       0.00000000       1.17939394       0.00000000       0.00000000     214.13714600
2
Properties=species:S:1:pos:R:3:forces:R:3 energy=76.92709754324275 pbc="F F F"
Hg       0.00000000       0.00000000       0.00000000       0.00000000       0.00000000    -242.84732056
Hg       0.00000000       0.00000000       1.23818182       0.00000000       0.00000000     242.84732056
2
Properties=species:S:1:pos:R:3:forces:R:3 energy=62.67842385981501 pbc="F F F"
Hg       0.00000000       0.00000000       0.00000000       0.00000000       0.00000000    -230.06425476
Hg       0.00000000       0.00000000       1.29696970       0.00000000       0.00000000     230.06425476
2
Properties=species:S:1:pos:R:3:forces:R:3 energy=51.19788975247055 pbc="F F F"
Hg       0.00000000       0.00000000       0.00000000       0.00000000       0.00000000    -159.19131470
Hg       0.00000000       0.00000000       1.35575758       0.00000000       0.00000000     159.19131470
2
Properties=species:S:1:pos:R:3:forces:R:3 energy=43.20306281711249 pbc="F F F"
Hg       0.00000000       0.00000000       0.00000000       0.00000000       0.00000000    -119.08358765
Hg       0.00000000       0.00000000       1.41454545       0.00000000       0.00000000     119.08358765
2
Properties=species:S:1:pos:R:3:forces:R:3 energy=36.83713550339169 pbc="F F F"
Hg       0.00000000       0.00000000       0.00000000       0.00000000       0.00000000     -98.72942352
Hg       0.00000000       0.00000000       1.47333333       0.00000000       0.00000000      98.72942352
2
Properties=species:S:1:pos:R:3:forces:R:3 energy=31.495400286649804 pbc="F F F"
Hg       0.00000000       0.00000000       0.00000000       0.00000000       0.00000000     -83.71334839
Hg       0.00000000       0.00000000       1.53212121       0.00000000       0.00000000      83.71334839
2
Properties=species:S:1:pos:R:3:forces:R:3 energy=26.92483424105137 pbc="F F F"
Hg       0.00000000       0.00000000       0.00000000       0.00000000       0.00000000     -72.20642853
Hg       0.00000000       0.00000000       1.59090909       0.00000000       0.00000000      72.20642853
2
Properties=species:S:1:pos:R:3:forces:R:3 energy=22.97294700734526 pbc="F F F"
Hg       0.00000000       0.00000000       0.00000000       0.00000000       0.00000000     -62.45001221
Hg       0.00000000       0.00000000       1.64969697       0.00000000       0.00000000      62.45001221
2
Properties=species:S:1:pos:R:3:forces:R:3 energy=19.5486515198234 pbc="F F F"
Hg       0.00000000       0.00000000       0.00000000       0.00000000       0.00000000     -54.45415497
Hg       0.00000000       0.00000000       1.70848485       0.00000000       0.00000000      54.45415497
2
Properties=species:S:1:pos:R:3:forces:R:3 energy=16.51595413774848 pbc="F F F"
Hg       0.00000000       0.00000000       0.00000000       0.00000000       0.00000000     -49.13743591
Hg       0.00000000       0.00000000       1.76727273       0.00000000       0.00000000      49.13743591
2
Properties=species:S:1:pos:R:3:forces:R:3 energy=13.742825701537281 pbc="F F F"
Hg       0.00000000       0.00000000       0.00000000       0.00000000       0.00000000     -45.24521637
Hg       0.00000000       0.00000000       1.82606061       0.00000000       0.00000000      45.24521637
2
Properties=species:S:1:pos:R:3:forces:R:3 energy=11.209540794935734 pbc="F F F"
Hg       0.00000000       0.00000000       0.00000000       0.00000000       0.00000000     -40.74013901
Hg       0.00000000       0.00000000       1.88484848       0.00000000       0.00000000      40.74013901
2
Properties=species:S:1:pos:R:3:forces:R:3 energy=8.974839529944994 pbc="F F F"
Hg       0.00000000       0.00000000       0.00000000       0.00000000       0.00000000     -35.15063477
Hg       0.00000000       0.00000000       1.94363636       0.00000000       0.00000000      35.15063477
2
Properties=species:S:1:pos:R:3:forces:R:3 energy=7.08348307944327 pbc="F F F"
Hg       0.00000000       0.00000000       0.00000000       0.00000000       0.00000000     -29.21032143
Hg       0.00000000       0.00000000       2.00242424       0.00000000       0.00000000      29.21032143
2
Properties=species:S:1:pos:R:3:forces:R:3 energy=5.532152693159494 pbc="F F F"
Hg       0.00000000       0.00000000       0.00000000       0.00000000       0.00000000     -23.67630577
Hg       0.00000000       0.00000000       2.06121212       0.00000000       0.00000000      23.67630577
2
Properties=species:S:1:pos:R:3:forces:R:3 energy=4.284590654104783 pbc="F F F"
Hg       0.00000000       0.00000000       0.00000000       0.00000000       0.00000000     -18.90426636
Hg       0.00000000       0.00000000       2.12000000       0.00000000       0.00000000      18.90426636
2
Properties=species:S:1:pos:R:3:forces:R:3 energy=3.2934003229389806 pbc="F F F"
Hg       0.00000000       0.00000000       0.00000000       0.00000000       0.00000000     -14.94814587
Hg       0.00000000       0.00000000       2.17878788       0.00000000       0.00000000      14.94814587
2
Properties=species:S:1:pos:R:3:forces:R:3 energy=2.512615225672009 pbc="F F F"
Hg       0.00000000       0.00000000       0.00000000       0.00000000       0.00000000     -11.72814751
Hg       0.00000000       0.00000000       2.23757576       0.00000000       0.00000000      11.72814751
2
Properties=species:S:1:pos:R:3:forces:R:3 energy=1.902252123765503 pbc="F F F"
Hg       0.00000000       0.00000000       0.00000000       0.00000000       0.00000000      -9.13152885
Hg       0.00000000       0.00000000       2.29636364       0.00000000       0.00000000       9.13152885
2
Properties=species:S:1:pos:R:3:forces:R:3 energy=1.4287969468749828 pbc="F F F"
Hg       0.00000000       0.00000000       0.00000000       0.00000000       0.00000000      -7.05459595
Hg       0.00000000       0.00000000       2.35515152       0.00000000       0.00000000       7.05459595
2
Properties=species:S:1:pos:R:3:forces:R:3 energy=1.0643048680837917 pbc="F F F"
Hg       0.00000000       0.00000000       0.00000000       0.00000000       0.00000000      -5.41158295
Hg       0.00000000       0.00000000       2.41393939       0.00000000       0.00000000       5.41158295
2
Properties=species:S:1:pos:R:3:forces:R:3 energy=0.7854310355924579 pbc="F F F"
Hg       0.00000000       0.00000000       0.00000000       0.00000000       0.00000000      -4.13088560
Hg       0.00000000       0.00000000       2.47272727       0.00000000       0.00000000       4.13088560
2
Properties=species:S:1:pos:R:3:forces:R:3 energy=0.5727438019138885 pbc="F F F"
Hg       0.00000000       0.00000000       0.00000000       0.00000000       0.00000000      -3.14997387
Hg       0.00000000       0.00000000       2.53151515       0.00000000       0.00000000       3.14997387
2
Properties=species:S:1:pos:R:3:forces:R:3 energy=0.4103114928706236 pbc="F F F"
Hg       0.00000000       0.00000000       0.00000000       0.00000000       0.00000000      -2.41209626
Hg       0.00000000       0.00000000       2.59030303       0.00000000       0.00000000       2.41209626
2
Properties=species:S:1:pos:R:3:forces:R:3 energy=0.28540254404247406 pbc="F F F"
Hg       0.00000000       0.00000000       0.00000000       0.00000000       0.00000000      -1.86510217
Hg       0.00000000       0.00000000       2.64909091       0.00000000       0.00000000       1.86510217
2
Properties=species:S:1:pos:R:3:forces:R:3 energy=0.18820108186075005 pbc="F F F"
Hg       0.00000000       0.00000000       0.00000000       0.00000000       0.00000000      -1.46222746
Hg       0.00000000       0.00000000       2.70787879       0.00000000       0.00000000       1.46222746
2
Properties=species:S:1:pos:R:3:forces:R:3 energy=0.11143519081751238 pbc="F F F"
Hg       0.00000000       0.00000000       0.00000000       0.00000000       0.00000000      -1.16399527
Hg       0.00000000       0.00000000       2.76666667       0.00000000       0.00000000       1.16399527
2
Properties=species:S:1:pos:R:3:forces:R:3 energy=0.04989917731794746 pbc="F F F"
Hg       0.00000000       0.00000000       0.00000000       0.00000000       0.00000000      -0.93977547
Hg       0.00000000       0.00000000       2.82545455       0.00000000       0.00000000       0.93977547
2
Properties=species:S:1:pos:R:3:forces:R:3 energy=-8.253390946712236e-05 pbc="F F F"
Hg       0.00000000       0.00000000       0.00000000       0.00000000       0.00000000      -0.76799941
Hg       0.00000000       0.00000000       2.88424242       0.00000000       0.00000000       0.76799941
2
Properties=species:S:1:pos:R:3:forces:R:3 energy=-0.041150435592089106 pbc="F F F"
Hg       0.00000000       0.00000000       0.00000000       0.00000000       0.00000000      -0.63471407
Hg       0.00000000       0.00000000       2.94303030       0.00000000       0.00000000       0.63471407
2
Properties=species:S:1:pos:R:3:forces:R:3 energy=-0.07528558902566661 pbc="F F F"
Hg       0.00000000       0.00000000       0.00000000       0.00000000       0.00000000      -0.53090876
Hg       0.00000000       0.00000000       3.00181818       0.00000000       0.00000000       0.53090876
2
Properties=species:S:1:pos:R:3:forces:R:3 energy=-0.10401560545487641 pbc="F F F"
Hg       0.00000000       0.00000000       0.00000000       0.00000000       0.00000000      -0.44974253
Hg       0.00000000       0.00000000       3.06060606       0.00000000       0.00000000       0.44974253
2
Properties=species:S:1:pos:R:3:forces:R:3 energy=-0.12848580765568823 pbc="F F F"
Hg       0.00000000       0.00000000       0.00000000       0.00000000       0.00000000      -0.38499719
Hg       0.00000000       0.00000000       3.11939394       0.00000000       0.00000000       0.38499719
2
Properties=species:S:1:pos:R:3:forces:R:3 energy=-0.14949702134054427 pbc="F F F"
Hg       0.00000000       0.00000000       0.00000000       0.00000000       0.00000000      -0.33128557
Hg       0.00000000       0.00000000       3.17818182       0.00000000       0.00000000       0.33128557
2
Properties=species:S:1:pos:R:3:forces:R:3 energy=-0.16757767837729648 pbc="F F F"
Hg       0.00000000       0.00000000       0.00000000       0.00000000       0.00000000      -0.28480127
Hg       0.00000000       0.00000000       3.23696970       0.00000000       0.00000000       0.28480127
2
Properties=species:S:1:pos:R:3:forces:R:3 energy=-0.18307756497964778 pbc="F F F"
Hg       0.00000000       0.00000000       0.00000000       0.00000000       0.00000000      -0.24317475
Hg       0.00000000       0.00000000       3.29575758       0.00000000       0.00000000       0.24317475
2
Properties=species:S:1:pos:R:3:forces:R:3 energy=-0.19623452869538688 pbc="F F F"
Hg       0.00000000       0.00000000       0.00000000       0.00000000       0.00000000      -0.20491853
Hg       0.00000000       0.00000000       3.35454545       0.00000000       0.00000000       0.20491853
2
Properties=species:S:1:pos:R:3:forces:R:3 energy=-0.20722340200606032 pbc="F F F"
Hg       0.00000000       0.00000000       0.00000000       0.00000000       0.00000000      -0.16935983
Hg       0.00000000       0.00000000       3.41333333       0.00000000       0.00000000       0.16935983
2
Properties=species:S:1:pos:R:3:forces:R:3 energy=-0.21620273907093518 pbc="F F F"
Hg       0.00000000       0.00000000       0.00000000       0.00000000       0.00000000      -0.13665271
Hg       0.00000000       0.00000000       3.47212121       0.00000000       0.00000000       0.13665271
2
Properties=species:S:1:pos:R:3:forces:R:3 energy=-0.22335881692628717 pbc="F F F"
Hg       0.00000000       0.00000000       0.00000000       0.00000000       0.00000000      -0.10745159
Hg       0.00000000       0.00000000       3.53090909       0.00000000       0.00000000       0.10745159
2
Properties=species:S:1:pos:R:3:forces:R:3 energy=-0.2289191063782463 pbc="F F F"
Hg       0.00000000       0.00000000       0.00000000       0.00000000       0.00000000      -0.08244580
Hg       0.00000000       0.00000000       3.58969697       0.00000000       0.00000000       0.08244580
2
Properties=species:S:1:pos:R:3:forces:R:3 energy=-0.23314292369779438 pbc="F F F"
Hg       0.00000000       0.00000000       0.00000000       0.00000000       0.00000000      -0.06203995
Hg       0.00000000       0.00000000       3.64848485       0.00000000       0.00000000       0.06203995
2
Properties=species:S:1:pos:R:3:forces:R:3 energy=-0.23630363171307425 pbc="F F F"
Hg       0.00000000       0.00000000       0.00000000       0.00000000       0.00000000      -0.04623706
Hg       0.00000000       0.00000000       3.70727273       0.00000000       0.00000000       0.04623706
2
Properties=species:S:1:pos:R:3:forces:R:3 energy=-0.23866281441526516 pbc="F F F"
Hg       0.00000000       0.00000000       0.00000000       0.00000000       0.00000000      -0.03468138
Hg       0.00000000       0.00000000       3.76606061       0.00000000       0.00000000       0.03468138
2
Properties=species:S:1:pos:R:3:forces:R:3 energy=-0.24045299699135345 pbc="F F F"
Hg       0.00000000       0.00000000       0.00000000       0.00000000       0.00000000      -0.02676645
Hg       0.00000000       0.00000000       3.82484848       0.00000000       0.00000000       0.02676645
2
Properties=species:S:1:pos:R:3:forces:R:3 energy=-0.24186683543867543 pbc="F F F"
Hg       0.00000000       0.00000000       0.00000000       0.00000000       0.00000000      -0.02175594
Hg       0.00000000       0.00000000       3.88363636       0.00000000       0.00000000       0.02175594
2
Properties=species:S:1:pos:R:3:forces:R:3 energy=-0.243052730809808 pbc="F F F"
Hg       0.00000000       0.00000000       0.00000000       0.00000000       0.00000000      -0.01888148
Hg       0.00000000       0.00000000       3.94242424       0.00000000       0.00000000       0.01888148
2
Properties=species:S:1:pos:R:3:forces:R:3 energy=-0.24411407465104218 pbc="F F F"
Hg       0.00000000       0.00000000       0.00000000       0.00000000       0.00000000      -0.01740712
Hg       0.00000000       0.00000000       4.00121212       0.00000000       0.00000000       0.01740712
2
Properties=species:S:1:pos:R:3:forces:R:3 energy=-0.24511374375536912 pbc="F F F"
Hg       0.00000000       0.00000000       0.00000000       0.00000000       0.00000000      -0.01667067
Hg       0.00000000       0.00000000       4.06000000       0.00000000       0.00000000       0.01667067
2
Properties=species:S:1:pos:R:3:forces:R:3 energy=-0.24607751605018907 pbc="F F F"
Hg       0.00000000       0.00000000       0.00000000       0.00000000       0.00000000      -0.01610859
Hg       0.00000000       0.00000000       4.11878788       0.00000000       0.00000000       0.01610859
2
Properties=species:S:1:pos:R:3:forces:R:3 energy=-0.2470022951003409 pbc="F F F"
Hg       0.00000000       0.00000000       0.00000000       0.00000000       0.00000000      -0.01527343
Hg       0.00000000       0.00000000       4.17757576       0.00000000       0.00000000       0.01527343
2
Properties=species:S:1:pos:R:3:forces:R:3 energy=-0.24786184459528648 pbc="F F F"
Hg       0.00000000       0.00000000       0.00000000       0.00000000       0.00000000      -0.01384996
Hg       0.00000000       0.00000000       4.23636364       0.00000000       0.00000000       0.01384996
2
Properties=species:S:1:pos:R:3:forces:R:3 energy=-0.24861573573544496 pbc="F F F"
Hg       0.00000000       0.00000000       0.00000000       0.00000000       0.00000000      -0.01166385
Hg       0.00000000       0.00000000       4.29515152       0.00000000       0.00000000       0.01166385
2
Properties=species:S:1:pos:R:3:forces:R:3 energy=-0.2492174465442617 pbc="F F F"
Hg       0.00000000       0.00000000       0.00000000       0.00000000       0.00000000      -0.00868722
Hg       0.00000000       0.00000000       4.35393939       0.00000000       0.00000000       0.00868722
2
Properties=species:S:1:pos:R:3:forces:R:3 energy=-0.2496235851649969 pbc="F F F"
Hg       0.00000000       0.00000000       0.00000000       0.00000000       0.00000000      -0.00502854
Hg       0.00000000       0.00000000       4.41272727       0.00000000       0.00000000       0.00502854
2
Properties=species:S:1:pos:R:3:forces:R:3 energy=-0.2497998868171432 pbc="F F F"
Hg       0.00000000       0.00000000       0.00000000       0.00000000       0.00000000      -0.00091770
Hg       0.00000000       0.00000000       4.47151515       0.00000000       0.00000000       0.00091770
2
Properties=species:S:1:pos:R:3:forces:R:3 energy=-0.249729003059944 pbc="F F F"
Hg       0.00000000       0.00000000       0.00000000       0.00000000       0.00000000       0.00332043
Hg       0.00000000       0.00000000       4.53030303       0.00000000       0.00000000      -0.00332043
2
Properties=species:S:1:pos:R:3:forces:R:3 energy=-0.24941448463217472 pbc="F F F"
Hg       0.00000000       0.00000000       0.00000000       0.00000000       0.00000000       0.00729639
Hg       0.00000000       0.00000000       4.58909091       0.00000000       0.00000000      -0.00729639
2
Properties=species:S:1:pos:R:3:forces:R:3 energy=-0.24888441352169058 pbc="F F F"
Hg       0.00000000       0.00000000       0.00000000       0.00000000       0.00000000       0.01059203
Hg       0.00000000       0.00000000       4.64787879       0.00000000       0.00000000      -0.01059203
2
Properties=species:S:1:pos:R:3:forces:R:3 energy=-0.24819047288175913 pbc="F F F"
Hg       0.00000000       0.00000000       0.00000000       0.00000000       0.00000000       0.01280650
Hg       0.00000000       0.00000000       4.70666667       0.00000000       0.00000000      -0.01280650
2
Properties=species:S:1:pos:R:3:forces:R:3 energy=-0.24740638082522398 pbc="F F F"
Hg       0.00000000       0.00000000       0.00000000       0.00000000       0.00000000       0.01361651
Hg       0.00000000       0.00000000       4.76545455       0.00000000       0.00000000      -0.01361651
2
Properties=species:S:1:pos:R:3:forces:R:3 energy=-0.24662043386223695 pbc="F F F"
Hg       0.00000000       0.00000000       0.00000000       0.00000000       0.00000000       0.01285470
Hg       0.00000000       0.00000000       4.82424242       0.00000000       0.00000000      -0.01285470
2
Properties=species:S:1:pos:R:3:forces:R:3 energy=-0.24592459356058147 pbc="F F F"
Hg       0.00000000       0.00000000       0.00000000       0.00000000       0.00000000       0.01058916
Hg       0.00000000       0.00000000       4.88303030       0.00000000       0.00000000      -0.01058916
2
Properties=species:S:1:pos:R:3:forces:R:3 energy=-0.2453981041878498 pbc="F F F"
Hg       0.00000000       0.00000000       0.00000000       0.00000000       0.00000000       0.00717483
Hg       0.00000000       0.00000000       4.94181818       0.00000000       0.00000000      -0.00717483
2
Properties=species:S:1:pos:R:3:forces:R:3 energy=-0.24509153069197015 pbc="F F F"
Hg       0.00000000       0.00000000       0.00000000       0.00000000       0.00000000       0.00322585
Hg       0.00000000       0.00000000       5.00060606       0.00000000       0.00000000      -0.00322585
2
Properties=species:S:1:pos:R:3:forces:R:3 energy=-0.24501563639129992 pbc="F F F"
Hg       0.00000000       0.00000000       0.00000000       0.00000000       0.00000000      -0.00056665
Hg       0.00000000       0.00000000       5.05939394       0.00000000       0.00000000       0.00056665
2
Properties=species:S:1:pos:R:3:forces:R:3 energy=-0.2451465863557165 pbc="F F F"
Hg       0.00000000       0.00000000       0.00000000       0.00000000       0.00000000      -0.00379651
Hg       0.00000000       0.00000000       5.11818182       0.00000000       0.00000000       0.00379651
2
Properties=species:S:1:pos:R:3:forces:R:3 energy=-0.2454563140352456 pbc="F F F"
Hg       0.00000000       0.00000000       0.00000000       0.00000000       0.00000000      -0.00676492
Hg       0.00000000       0.00000000       5.17696970       0.00000000       0.00000000       0.00676492
2
Properties=species:S:1:pos:R:3:forces:R:3 energy=-0.245955776747161 pbc="F F F"
Hg       0.00000000       0.00000000       0.00000000       0.00000000       0.00000000      -0.01042288
Hg       0.00000000       0.00000000       5.23575758       0.00000000       0.00000000       0.01042288
2
Properties=species:S:1:pos:R:3:forces:R:3 energy=-0.24670543723596006 pbc="F F F"
Hg       0.00000000       0.00000000       0.00000000       0.00000000       0.00000000      -0.01521854
Hg       0.00000000       0.00000000       5.29454545       0.00000000       0.00000000       0.01521854
2
Properties=species:S:1:pos:R:3:forces:R:3 energy=-0.24774210222373264 pbc="F F F"
Hg       0.00000000       0.00000000       0.00000000       0.00000000       0.00000000      -0.01982817
Hg       0.00000000       0.00000000       5.35333333       0.00000000       0.00000000       0.01982817
2
Properties=species:S:1:pos:R:3:forces:R:3 energy=-0.24899239215906388 pbc="F F F"
Hg       0.00000000       0.00000000       0.00000000       0.00000000       0.00000000      -0.02225112
Hg       0.00000000       0.00000000       5.41212121       0.00000000       0.00000000       0.02225112
2
Properties=species:S:1:pos:R:3:forces:R:3 energy=-0.25030850667175414 pbc="F F F"
Hg       0.00000000       0.00000000       0.00000000       0.00000000       0.00000000      -0.02219952
Hg       0.00000000       0.00000000       5.47090909       0.00000000       0.00000000       0.02219952
2
Properties=species:S:1:pos:R:3:forces:R:3 energy=-0.25158388940789866 pbc="F F F"
Hg       0.00000000       0.00000000       0.00000000       0.00000000       0.00000000      -0.02117494
Hg       0.00000000       0.00000000       5.52969697       0.00000000       0.00000000       0.02117494
2
Properties=species:S:1:pos:R:3:forces:R:3 energy=-0.2528065448226214 pbc="F F F"
Hg       0.00000000       0.00000000       0.00000000       0.00000000       0.00000000      -0.02049826
Hg       0.00000000       0.00000000       5.58848485       0.00000000       0.00000000       0.02049826
2
Properties=species:S:1:pos:R:3:forces:R:3 energy=-0.2539855949622893 pbc="F F F"
Hg       0.00000000       0.00000000       0.00000000       0.00000000       0.00000000      -0.01938720
Hg       0.00000000       0.00000000       5.64727273       0.00000000       0.00000000       0.01938720
2
Properties=species:S:1:pos:R:3:forces:R:3 energy=-0.2550320612554717 pbc="F F F"
Hg       0.00000000       0.00000000       0.00000000       0.00000000       0.00000000      -0.01563162
Hg       0.00000000       0.00000000       5.70606061       0.00000000       0.00000000       0.01563162
2
Properties=species:S:1:pos:R:3:forces:R:3 energy=-0.2557691630912239 pbc="F F F"
Hg       0.00000000       0.00000000       0.00000000       0.00000000       0.00000000      -0.00906901
Hg       0.00000000       0.00000000       5.76484848       0.00000000       0.00000000       0.00906901
2
Properties=species:S:1:pos:R:3:forces:R:3 energy=-0.25609563612968306 pbc="F F F"
Hg       0.00000000       0.00000000       0.00000000       0.00000000       0.00000000      -0.00224259
Hg       0.00000000       0.00000000       5.82363636       0.00000000       0.00000000       0.00224259
2
Properties=species:S:1:pos:R:3:forces:R:3 energy=-0.25606839314898205 pbc="F F F"
Hg       0.00000000       0.00000000       0.00000000       0.00000000       0.00000000       0.00273818
Hg       0.00000000       0.00000000       5.88242424       0.00000000       0.00000000      -0.00273818
2
Properties=species:S:1:pos:R:3:forces:R:3 energy=-0.2558168426603729 pbc="F F F"
Hg       0.00000000       0.00000000       0.00000000       0.00000000       0.00000000       0.00549298
Hg       0.00000000       0.00000000       5.94121212       0.00000000       0.00000000      -0.00549298
2
Properties=species:S:1:pos:R:3:forces:R:3 energy=-0.25546335745115756 pbc="F F F"
Hg       0.00000000       0.00000000       0.00000000       0.00000000       0.00000000       0.00617705
Hg       0.00000000       0.00000000       6.00000000       0.00000000       0.00000000      -0.00617705
