2
Properties=species:S:1:pos:R:3:forces:R:3 energy=66730.30767819205 pbc="F F F"
Ho       0.00000000       0.00000000       0.00000000       0.00000000       0.00000000 -1664642.62500000
Ho       0.00000000       0.00000000       0.10000000       0.00000000       0.00000000 1664642.62500000
2
Properties=species:S:1:pos:R:3:forces:R:3 energy=18660.77252194206 pbc="F F F"
Ho       0.00000000       0.00000000       0.00000000       0.00000000       0.00000000 -347549.78125000
Ho       0.00000000       0.00000000       0.15959596       0.00000000       0.00000000  347549.78125000
2
Properties=species:S:1:pos:R:3:forces:R:3 energy=6825.68023678581 pbc="F F F"
Ho       0.00000000       0.00000000       0.00000000       0.00000000       0.00000000 -105394.82031250
Ho       0.00000000       0.00000000       0.21919192       0.00000000       0.00000000  105394.82031250
2
Properties=species:S:1:pos:R:3:forces:R:3 energy=2890.453430145185 pbc="F F F"
Ho       0.00000000       0.00000000       0.00000000       0.00000000       0.00000000  -39094.44921875
Ho       0.00000000       0.00000000       0.27878788       0.00000000       0.00000000   39094.44921875
2
Properties=species:S:1:pos:R:3:forces:R:3 energy=1348.0390014342472 pbc="F F F"
Ho       0.00000000       0.00000000       0.00000000       0.00000000       0.00000000  -16341.83496094
Ho       0.00000000       0.00000000       0.33838384       0.00000000       0.00000000   16341.83496094
2
Properties=species:S:1:pos:R:3:forces:R:3 energy=679.0209350279972 pbc="F F F"
Ho       0.00000000       0.00000000       0.00000000       0.00000000       0.00000000   -7405.59375000
Ho       0.00000000       0.00000000       0.39797980       0.00000000       0.00000000    7405.59375000
2
Properties=species:S:1:pos:R:3:forces:R:3 energy=367.134094220356 pbc="F F F"
Ho       0.00000000       0.00000000       0.00000000       0.00000000       0.00000000   -3571.94360352
Ho       0.00000000       0.00000000       0.45757576       0.00000000       0.00000000    3571.94360352
2
Properties=species:S:1:pos:R:3:forces:R:3 energy=213.0845489449414 pbc="F F F"
Ho       0.00000000       0.00000000       0.00000000       0.00000000       0.00000000   -1815.22338867
Ho       0.00000000       0.00000000       0.51717172       0.00000000       0.00000000    1815.22338867
2
Properties=species:S:1:pos:R:3:forces:R:3 energy=133.18457033258866 pbc="F F F"
Ho       0.00000000       0.00000000       0.00000000       0.00000000       0.00000000    -964.26385498
Ho       0.00000000       0.00000000       0.57676768       0.00000000       0.00000000     964.26385498
2
Properties=species:S:1:pos:R:3:forces:R:3 energy=90.02274328320019 pbc="F F F"
Ho       0.00000000       0.00000000       0.00000000       0.00000000       0.00000000    -530.78216553
Ho       0.00000000       0.00000000       0.63636364       0.00000000       0.00000000     530.78216553
2
Properties=species:S:1:pos:R:3:forces:R:3 energy=65.97415936218162 pbc="F F F"
Ho       0.00000000       0.00000000       0.00000000       0.00000000       0.00000000    -299.45767212
Ho       0.00000000       0.00000000       0.69595960       0.00000000       0.00000000     299.45767212
2
Properties=species:S:1:pos:R:3:forces:R:3 energy=52.320102901808376 pbc="F F F"
Ho       0.00000000       0.00000000       0.00000000       0.00000000       0.00000000    -170.90222168
Ho       0.00000000       0.00000000       0.75555556       0.00000000       0.00000000     170.90222168
2
Properties=species:S:1:pos:R:3:forces:R:3 energy=44.52196920376618 pbc="F F F"
Ho       0.00000000       0.00000000       0.00000000       0.00000000       0.00000000     -97.56427002
Ho       0.00000000       0.00000000       0.81515152       0.00000000       0.00000000      97.56427002
2
Properties=species:S:1:pos:R:3:forces:R:3 energy=40.06863842552575 pbc="F F F"
Ho       0.00000000       0.00000000       0.00000000       0.00000000       0.00000000     -55.89466476
Ho       0.00000000       0.00000000       0.87474747       0.00000000       0.00000000      55.89466476
2
Properties=species:S:1:pos:R:3:forces:R:3 energy=37.49054807458335 pbc="F F F"
Ho       0.00000000       0.00000000       0.00000000       0.00000000       0.00000000     -32.94756699
Ho       0.00000000       0.00000000       0.93434343       0.00000000       0.00000000      32.94756699
2
Properties=species:S:1:pos:R:3:forces:R:3 energy=35.93456016829701 pbc="F F F"
Ho       0.00000000       0.00000000       0.00000000       0.00000000       0.00000000     -20.55615997
Ho       0.00000000       0.00000000       0.99393939       0.00000000       0.00000000      20.55615997
2
Properties=species:S:1:pos:R:3:forces:R:3 energy=34.917676888407335 pbc="F F F"
Ho       0.00000000       0.00000000       0.00000000       0.00000000       0.00000000     -14.44222164
Ho       0.00000000       0.00000000       1.05353535       0.00000000       0.00000000      14.44222164
2
Properties=species:S:1:pos:R:3:forces:R:3 energy=34.11779667991063 pbc="F F F"
Ho       0.00000000       0.00000000       0.00000000       0.00000000       0.00000000     -13.15112591
Ho       0.00000000       0.00000000       1.11313131       0.00000000       0.00000000      13.15112591
2
Properties=species:S:1:pos:R:3:forces:R:3 energy=33.26607114896001 pbc="F F F"
Ho       0.00000000       0.00000000       0.00000000       0.00000000       0.00000000     -16.08711052
Ho       0.00000000       0.00000000       1.17272727       0.00000000       0.00000000      16.08711052
2
Properties=species:S:1:pos:R:3:forces:R:3 energy=32.13051718676875 pbc="F F F"
Ho       0.00000000       0.00000000       0.00000000       0.00000000       0.00000000     -22.51936531
Ho       0.00000000       0.00000000       1.23232323       0.00000000       0.00000000      22.51936531
2
Properties=species:S:1:pos:R:3:forces:R:3 energy=30.53665823315814 pbc="F F F"
Ho       0.00000000       0.00000000       0.00000000       0.00000000       0.00000000     -31.21428680
Ho       0.00000000       0.00000000       1.29191919       0.00000000       0.00000000      31.21428680
2
Properties=species:S:1:pos:R:3:forces:R:3 energy=28.397862601924857 pbc="F F F"
Ho       0.00000000       0.00000000       0.00000000       0.00000000       0.00000000     -40.52450943
Ho       0.00000000       0.00000000       1.35151515       0.00000000       0.00000000      40.52450943
2
Properties=species:S:1:pos:R:3:forces:R:3 energy=25.728019681840774 pbc="F F F"
Ho       0.00000000       0.00000000       0.00000000       0.00000000       0.00000000     -48.73715591
Ho       0.00000000       0.00000000       1.41111111       0.00000000       0.00000000      48.73715591
2
Properties=species:S:1:pos:R:3:forces:R:3 energy=22.65001817735354 pbc="F F F"
Ho       0.00000000       0.00000000       0.00000000       0.00000000       0.00000000     -53.86590195
Ho       0.00000000       0.00000000       1.47070707       0.00000000       0.00000000      53.86590195
2
Properties=species:S:1:pos:R:3:forces:R:3 energy=19.40523507933581 pbc="F F F"
Ho       0.00000000       0.00000000       0.00000000       0.00000000       0.00000000     -54.16902542
Ho       0.00000000       0.00000000       1.53030303       0.00000000       0.00000000      54.16902542
2
Properties=species:S:1:pos:R:3:forces:R:3 energy=16.279490534495974 pbc="F F F"
Ho       0.00000000       0.00000000       0.00000000       0.00000000       0.00000000     -50.24700928
Ho       0.00000000       0.00000000       1.58989899       0.00000000       0.00000000      50.24700928
2
Properties=species:S:1:pos:R:3:forces:R:3 energy=13.439229511345744 pbc="F F F"
Ho       0.00000000       0.00000000       0.00000000       0.00000000       0.00000000     -45.11320496
Ho       0.00000000       0.00000000       1.64949495       0.00000000       0.00000000      45.11320496
2
Properties=species:S:1:pos:R:3:forces:R:3 energy=10.88599806800748 pbc="F F F"
Ho       0.00000000       0.00000000       0.00000000       0.00000000       0.00000000     -40.71697998
Ho       0.00000000       0.00000000       1.70909091       0.00000000       0.00000000      40.71697998
2
Properties=species:S:1:pos:R:3:forces:R:3 energy=8.57470006050705 pbc="F F F"
Ho       0.00000000       0.00000000       0.00000000       0.00000000       0.00000000     -36.89412308
Ho       0.00000000       0.00000000       1.76868687       0.00000000       0.00000000      36.89412308
2
Properties=species:S:1:pos:R:3:forces:R:3 energy=6.4872602507716435 pbc="F F F"
Ho       0.00000000       0.00000000       0.00000000       0.00000000       0.00000000     -33.14296722
Ho       0.00000000       0.00000000       1.82828283       0.00000000       0.00000000      33.14296722
2
Properties=species:S:1:pos:R:3:forces:R:3 energy=4.628578432041434 pbc="F F F"
Ho       0.00000000       0.00000000       0.00000000       0.00000000       0.00000000     -29.18400955
Ho       0.00000000       0.00000000       1.88787879       0.00000000       0.00000000      29.18400955
2
Properties=species:S:1:pos:R:3:forces:R:3 energy=3.014605324445245 pbc="F F F"
Ho       0.00000000       0.00000000       0.00000000       0.00000000       0.00000000     -24.94271088
Ho       0.00000000       0.00000000       1.94747475       0.00000000       0.00000000      24.94271088
2
Properties=species:S:1:pos:R:3:forces:R:3 energy=1.6571303916025686 pbc="F F F"
Ho       0.00000000       0.00000000       0.00000000       0.00000000       0.00000000     -20.62714195
Ho       0.00000000       0.00000000       2.00707071       0.00000000       0.00000000      20.62714195
2
Properties=species:S:1:pos:R:3:forces:R:3 energy=0.5515316011737985 pbc="F F F"
Ho       0.00000000       0.00000000       0.00000000       0.00000000       0.00000000     -16.53158569
Ho       0.00000000       0.00000000       2.06666667       0.00000000       0.00000000      16.53158569
2
Properties=species:S:1:pos:R:3:forces:R:3 energy=-0.32100816000071314 pbc="F F F"
Ho       0.00000000       0.00000000       0.00000000       0.00000000       0.00000000     -12.81980133
Ho       0.00000000       0.00000000       2.12626263       0.00000000       0.00000000      12.81980133
2
Properties=species:S:1:pos:R:3:forces:R:3 energy=-0.985021218035681 pbc="F F F"
Ho       0.00000000       0.00000000       0.00000000       0.00000000       0.00000000      -9.53695107
Ho       0.00000000       0.00000000       2.18585859       0.00000000       0.00000000       9.53695107
2
Properties=species:S:1:pos:R:3:forces:R:3 energy=-1.4666203936456648 pbc="F F F"
Ho       0.00000000       0.00000000       0.00000000       0.00000000       0.00000000      -6.70216131
Ho       0.00000000       0.00000000       2.24545455       0.00000000       0.00000000       6.70216131
2
Properties=species:S:1:pos:R:3:forces:R:3 energy=-1.7935302082204603 pbc="F F F"
Ho       0.00000000       0.00000000       0.00000000       0.00000000       0.00000000      -4.35568285
Ho       0.00000000       0.00000000       2.30505051       0.00000000       0.00000000       4.35568285
2
Properties=species:S:1:pos:R:3:forces:R:3 energy=-1.9971420749836282 pbc="F F F"
Ho       0.00000000       0.00000000       0.00000000       0.00000000       0.00000000      -2.58130288
Ho       0.00000000       0.00000000       2.36464646       0.00000000       0.00000000       2.58130288
2
Properties=species:S:1:pos:R:3:forces:R:3 energy=-2.1141999042595594 pbc="F F F"
Ho       0.00000000       0.00000000       0.00000000       0.00000000       0.00000000      -1.45664442
Ho       0.00000000       0.00000000       2.42424242       0.00000000       0.00000000       1.45664442
2
Properties=species:S:1:pos:R:3:forces:R:3 energy=-2.182810292929191 pbc="F F F"
Ho       0.00000000       0.00000000       0.00000000       0.00000000       0.00000000      -0.93271744
Ho       0.00000000       0.00000000       2.48383838       0.00000000       0.00000000       0.93271744
2
Properties=species:S:1:pos:R:3:forces:R:3 energy=-2.2333674356628186 pbc="F F F"
Ho       0.00000000       0.00000000       0.00000000       0.00000000       0.00000000      -0.81020129
Ho       0.00000000       0.00000000       2.54343434       0.00000000       0.00000000       0.81020129
2
Properties=species:S:1:pos:R:3:forces:R:3 energy=-2.2826398419786393 pbc="F F F"
Ho       0.00000000       0.00000000       0.00000000       0.00000000       0.00000000      -0.85474956
Ho       0.00000000       0.00000000       2.60303030       0.00000000       0.00000000       0.85474956
2
Properties=species:S:1:pos:R:3:forces:R:3 energy=-2.3353028528553526 pbc="F F F"
Ho       0.00000000       0.00000000       0.00000000       0.00000000       0.00000000      -0.90533751
Ho       0.00000000       0.00000000       2.66262626       0.00000000       0.00000000       0.90533751
2
Properties=species:S:1:pos:R:3:forces:R:3 energy=-2.3892327252811096 pbc="F F F"
Ho       0.00000000       0.00000000       0.00000000       0.00000000       0.00000000      -0.89138770
Ho       0.00000000       0.00000000       2.72222222       0.00000000       0.00000000       0.89138770
2
Properties=species:S:1:pos:R:3:forces:R:3 energy=-2.439946752137276 pbc="F F F"
Ho       0.00000000       0.00000000       0.00000000       0.00000000       0.00000000      -0.79746550
Ho       0.00000000       0.00000000       2.78181818       0.00000000       0.00000000       0.79746550
2
Properties=species:S:1:pos:R:3:forces:R:3 energy=-2.4828385734257807 pbc="F F F"
Ho       0.00000000       0.00000000       0.00000000       0.00000000       0.00000000      -0.63104600
Ho       0.00000000       0.00000000       2.84141414       0.00000000       0.00000000       0.63104600
2
Properties=species:S:1:pos:R:3:forces:R:3 energy=-2.5140530860913013 pbc="F F F"
Ho       0.00000000       0.00000000       0.00000000       0.00000000       0.00000000      -0.40895903
Ho       0.00000000       0.00000000       2.90101010       0.00000000       0.00000000       0.40895903
2
Properties=species:S:1:pos:R:3:forces:R:3 energy=-2.530926349306379 pbc="F F F"
Ho       0.00000000       0.00000000       0.00000000       0.00000000       0.00000000      -0.15399303
Ho       0.00000000       0.00000000       2.96060606       0.00000000       0.00000000       0.15399303
2
Properties=species:S:1:pos:R:3:forces:R:3 energy=-2.532294288182107 pbc="F F F"
Ho       0.00000000       0.00000000       0.00000000       0.00000000       0.00000000       0.10658006
Ho       0.00000000       0.00000000       3.02020202       0.00000000       0.00000000      -0.10658006
2
Properties=species:S:1:pos:R:3:forces:R:3 energy=-2.518691910329948 pbc="F F F"
Ho       0.00000000       0.00000000       0.00000000       0.00000000       0.00000000       0.34363231
Ho       0.00000000       0.00000000       3.07979798       0.00000000       0.00000000      -0.34363231
2
Properties=species:S:1:pos:R:3:forces:R:3 energy=-2.4923339939568296 pbc="F F F"
Ho       0.00000000       0.00000000       0.00000000       0.00000000       0.00000000       0.53078413
Ho       0.00000000       0.00000000       3.13939394       0.00000000       0.00000000      -0.53078413
2
Properties=species:S:1:pos:R:3:forces:R:3 energy=-2.4567768479291296 pbc="F F F"
Ho       0.00000000       0.00000000       0.00000000       0.00000000       0.00000000       0.65042084
Ho       0.00000000       0.00000000       3.19898990       0.00000000       0.00000000      -0.65042084
2
Properties=species:S:1:pos:R:3:forces:R:3 energy=-2.416238803815043 pbc="F F F"
Ho       0.00000000       0.00000000       0.00000000       0.00000000       0.00000000       0.69856381
Ho       0.00000000       0.00000000       3.25858586       0.00000000       0.00000000      -0.69856381
2
Properties=species:S:1:pos:R:3:forces:R:3 energy=-2.374733518336202 pbc="F F F"
Ho       0.00000000       0.00000000       0.00000000       0.00000000       0.00000000       0.68571436
Ho       0.00000000       0.00000000       3.31818182       0.00000000       0.00000000      -0.68571436
2
Properties=species:S:1:pos:R:3:forces:R:3 energy=-2.335298986367498 pbc="F F F"
Ho       0.00000000       0.00000000       0.00000000       0.00000000       0.00000000       0.63313943
Ho       0.00000000       0.00000000       3.37777778       0.00000000       0.00000000      -0.63313943
2
Properties=species:S:1:pos:R:3:forces:R:3 energy=-2.29954285370006 pbc="F F F"
Ho       0.00000000       0.00000000       0.00000000       0.00000000       0.00000000       0.56665564
Ho       0.00000000       0.00000000       3.43737374       0.00000000       0.00000000      -0.56665564
2
Properties=species:S:1:pos:R:3:forces:R:3 energy=-2.267548982300825 pbc="F F F"
Ho       0.00000000       0.00000000       0.00000000       0.00000000       0.00000000       0.51053470
Ho       0.00000000       0.00000000       3.49696970       0.00000000       0.00000000      -0.51053470
2
Properties=species:S:1:pos:R:3:forces:R:3 energy=-2.238116018611197 pbc="F F F"
Ho       0.00000000       0.00000000       0.00000000       0.00000000       0.00000000       0.48310545
Ho       0.00000000       0.00000000       3.55656566       0.00000000       0.00000000      -0.48310545
2
Properties=species:S:1:pos:R:3:forces:R:3 energy=-2.2091931490178185 pbc="F F F"
Ho       0.00000000       0.00000000       0.00000000       0.00000000       0.00000000       0.49429566
Ho       0.00000000       0.00000000       3.61616162       0.00000000       0.00000000      -0.49429566
2
Properties=species:S:1:pos:R:3:forces:R:3 energy=-2.178415435925771 pbc="F F F"
Ho       0.00000000       0.00000000       0.00000000       0.00000000       0.00000000       0.54466540
Ho       0.00000000       0.00000000       3.67575758       0.00000000       0.00000000      -0.54466540
2
Properties=species:S:1:pos:R:3:forces:R:3 energy=-2.1436550921986077 pbc="F F F"
Ho       0.00000000       0.00000000       0.00000000       0.00000000       0.00000000       0.62592691
Ho       0.00000000       0.00000000       3.73535354       0.00000000       0.00000000      -0.62592691
2
Properties=species:S:1:pos:R:3:forces:R:3 energy=-2.1034857835021787 pbc="F F F"
Ho       0.00000000       0.00000000       0.00000000       0.00000000       0.00000000       0.72340244
Ho       0.00000000       0.00000000       3.79494949       0.00000000       0.00000000      -0.72340244
2
Properties=species:S:1:pos:R:3:forces:R:3 energy=-2.0574471715571203 pbc="F F F"
Ho       0.00000000       0.00000000       0.00000000       0.00000000       0.00000000       0.82018530
Ho       0.00000000       0.00000000       3.85454545       0.00000000       0.00000000      -0.82018530
2
Properties=species:S:1:pos:R:3:forces:R:3 energy=-2.006032856161632 pbc="F F F"
Ho       0.00000000       0.00000000       0.00000000       0.00000000       0.00000000       0.90178758
Ho       0.00000000       0.00000000       3.91414141       0.00000000       0.00000000      -0.90178758
2
Properties=species:S:1:pos:R:3:forces:R:3 energy=-1.9504395208323941 pbc="F F F"
Ho       0.00000000       0.00000000       0.00000000       0.00000000       0.00000000       0.95954669
Ho       0.00000000       0.00000000       3.97373737       0.00000000       0.00000000      -0.95954669
2
Properties=species:S:1:pos:R:3:forces:R:3 energy=-1.892174660550121 pbc="F F F"
Ho       0.00000000       0.00000000       0.00000000       0.00000000       0.00000000       0.99172360
Ho       0.00000000       0.00000000       4.03333333       0.00000000       0.00000000      -0.99172360
2
Properties=species:S:1:pos:R:3:forces:R:3 energy=-1.8326671301782884 pbc="F F F"
Ho       0.00000000       0.00000000       0.00000000       0.00000000       0.00000000       1.00218582
Ho       0.00000000       0.00000000       4.09292929       0.00000000       0.00000000      -1.00218582
2
Properties=species:S:1:pos:R:3:forces:R:3 energy=-1.7730195416010452 pbc="F F F"
Ho       0.00000000       0.00000000       0.00000000       0.00000000       0.00000000       0.99764156
Ho       0.00000000       0.00000000       4.15252525       0.00000000       0.00000000      -0.99764156
2
Properties=species:S:1:pos:R:3:forces:R:3 energy=-1.7139234437298518 pbc="F F F"
Ho       0.00000000       0.00000000       0.00000000       0.00000000       0.00000000       0.98466212
Ho       0.00000000       0.00000000       4.21212121       0.00000000       0.00000000      -0.98466212
2
Properties=species:S:1:pos:R:3:forces:R:3 energy=-1.6557327364189107 pbc="F F F"
Ho       0.00000000       0.00000000       0.00000000       0.00000000       0.00000000       0.96769971
Ho       0.00000000       0.00000000       4.27171717       0.00000000       0.00000000      -0.96769971
2
Properties=species:S:1:pos:R:3:forces:R:3 energy=-1.5986244786290782 pbc="F F F"
Ho       0.00000000       0.00000000       0.00000000       0.00000000       0.00000000       0.94847596
Ho       0.00000000       0.00000000       4.33131313       0.00000000       0.00000000      -0.94847596
2
Properties=species:S:1:pos:R:3:forces:R:3 energy=-1.5427362302007153 pbc="F F F"
Ho       0.00000000       0.00000000       0.00000000       0.00000000       0.00000000       0.92650867
Ho       0.00000000       0.00000000       4.39090909       0.00000000       0.00000000      -0.92650867
2
Properties=species:S:1:pos:R:3:forces:R:3 energy=-1.4882760198394522 pbc="F F F"
Ho       0.00000000       0.00000000       0.00000000       0.00000000       0.00000000       0.90028059
Ho       0.00000000       0.00000000       4.45050505       0.00000000       0.00000000      -0.90028059
2
Properties=species:S:1:pos:R:3:forces:R:3 energy=-1.4355445750648441 pbc="F F F"
Ho       0.00000000       0.00000000       0.00000000       0.00000000       0.00000000       0.86834317
Ho       0.00000000       0.00000000       4.51010101       0.00000000       0.00000000      -0.86834317
2
Properties=species:S:1:pos:R:3:forces:R:3 energy=-1.3849016861837835 pbc="F F F"
Ho       0.00000000       0.00000000       0.00000000       0.00000000       0.00000000       0.83013511
Ho       0.00000000       0.00000000       4.56969697       0.00000000       0.00000000      -0.83013511
2
Properties=species:S:1:pos:R:3:forces:R:3 energy=-1.336711208794413 pbc="F F F"
Ho       0.00000000       0.00000000       0.00000000       0.00000000       0.00000000       0.78628272
Ho       0.00000000       0.00000000       4.62929293       0.00000000       0.00000000      -0.78628272
2
Properties=species:S:1:pos:R:3:forces:R:3 energy=-1.29126283598165 pbc="F F F"
Ho       0.00000000       0.00000000       0.00000000       0.00000000       0.00000000       0.73849308
Ho       0.00000000       0.00000000       4.68888889       0.00000000       0.00000000      -0.73849308
2
Properties=species:S:1:pos:R:3:forces:R:3 energy=-1.2487212478036545 pbc="F F F"
Ho       0.00000000       0.00000000       0.00000000       0.00000000       0.00000000       0.68907756
Ho       0.00000000       0.00000000       4.74848485       0.00000000       0.00000000      -0.68907756
2
Properties=species:S:1:pos:R:3:forces:R:3 energy=-1.2091178973541874 pbc="F F F"
Ho       0.00000000       0.00000000       0.00000000       0.00000000       0.00000000       0.64026999
Ho       0.00000000       0.00000000       4.80808081       0.00000000       0.00000000      -0.64026999
2
Properties=species:S:1:pos:R:3:forces:R:3 energy=-1.1723651293118833 pbc="F F F"
Ho       0.00000000       0.00000000       0.00000000       0.00000000       0.00000000       0.59348375
Ho       0.00000000       0.00000000       4.86767677       0.00000000       0.00000000      -0.59348375
2
Properties=species:S:1:pos:R:3:forces:R:3 energy=-1.1383355721591404 pbc="F F F"
Ho       0.00000000       0.00000000       0.00000000       0.00000000       0.00000000       0.54878879
Ho       0.00000000       0.00000000       4.92727273       0.00000000       0.00000000      -0.54878879
2
Properties=species:S:1:pos:R:3:forces:R:3 energy=-1.1069324970055308 pbc="F F F"
Ho       0.00000000       0.00000000       0.00000000       0.00000000       0.00000000       0.50515372
Ho       0.00000000       0.00000000       4.98686869       0.00000000       0.00000000      -0.50515372
2
Properties=species:S:1:pos:R:3:forces:R:3 energy=-1.0781145661866725 pbc="F F F"
Ho       0.00000000       0.00000000       0.00000000       0.00000000       0.00000000       0.46235922
Ho       0.00000000       0.00000000       5.04646465       0.00000000       0.00000000      -0.46235922
2
Properties=species:S:1:pos:R:3:forces:R:3 energy=-1.0517248010278386 pbc="F F F"
Ho       0.00000000       0.00000000       0.00000000       0.00000000       0.00000000       0.42492461
Ho       0.00000000       0.00000000       5.10606061       0.00000000       0.00000000      -0.42492461
2
Properties=species:S:1:pos:R:3:forces:R:3 energy=-1.0271157699986295 pbc="F F F"
Ho       0.00000000       0.00000000       0.00000000       0.00000000       0.00000000       0.40507764
Ho       0.00000000       0.00000000       5.16565657       0.00000000       0.00000000      -0.40507764
2
Properties=species:S:1:pos:R:3:forces:R:3 energy=-1.0028132727966204 pbc="F F F"
Ho       0.00000000       0.00000000       0.00000000       0.00000000       0.00000000       0.41619167
Ho       0.00000000       0.00000000       5.22525253       0.00000000       0.00000000      -0.41619167
2
Properties=species:S:1:pos:R:3:forces:R:3 energy=-0.9769667904869095 pbc="F F F"
Ho       0.00000000       0.00000000       0.00000000       0.00000000       0.00000000       0.45361394
Ho       0.00000000       0.00000000       5.28484848       0.00000000       0.00000000      -0.45361394
2
Properties=species:S:1:pos:R:3:forces:R:3 energy=-0.9488549136795669 pbc="F F F"
Ho       0.00000000       0.00000000       0.00000000       0.00000000       0.00000000       0.48550862
Ho       0.00000000       0.00000000       5.34444444       0.00000000       0.00000000      -0.48550862
2
Properties=species:S:1:pos:R:3:forces:R:3 energy=-0.9198507641287526 pbc="F F F"
Ho       0.00000000       0.00000000       0.00000000       0.00000000       0.00000000       0.48090744
Ho       0.00000000       0.00000000       5.40404040       0.00000000       0.00000000      -0.48090744
2
Properties=species:S:1:pos:R:3:forces:R:3 energy=-0.8921208837739627 pbc="F F F"
Ho       0.00000000       0.00000000       0.00000000       0.00000000       0.00000000       0.44792691
Ho       0.00000000       0.00000000       5.46363636       0.00000000       0.00000000      -0.44792691
2
Properties=species:S:1:pos:R:3:forces:R:3 energy=-0.8661011721028615 pbc="F F F"
Ho       0.00000000       0.00000000       0.00000000       0.00000000       0.00000000       0.43347692
Ho       0.00000000       0.00000000       5.52323232       0.00000000       0.00000000      -0.43347692
2
Properties=species:S:1:pos:R:3:forces:R:3 energy=-0.8391548521441426 pbc="F F F"
Ho       0.00000000       0.00000000       0.00000000       0.00000000       0.00000000       0.48281705
Ho       0.00000000       0.00000000       5.58282828       0.00000000       0.00000000      -0.48281705
2
Properties=species:S:1:pos:R:3:forces:R:3 energy=-0.8074502033434274 pbc="F F F"
Ho       0.00000000       0.00000000       0.00000000       0.00000000       0.00000000       0.58490330
Ho       0.00000000       0.00000000       5.64242424       0.00000000       0.00000000      -0.58490330
2
Properties=species:S:1:pos:R:3:forces:R:3 energy=-0.769987621258734 pbc="F F F"
Ho       0.00000000       0.00000000       0.00000000       0.00000000       0.00000000       0.65793800
Ho       0.00000000       0.00000000       5.70202020       0.00000000       0.00000000      -0.65793800
2
Properties=species:S:1:pos:R:3:forces:R:3 energy=-0.7313812269479698 pbc="F F F"
Ho       0.00000000       0.00000000       0.00000000       0.00000000       0.00000000       0.61687446
Ho       0.00000000       0.00000000       5.76161616       0.00000000       0.00000000      -0.61687446
2
Properties=species:S:1:pos:R:3:forces:R:3 energy=-0.698863023480924 pbc="F F F"
Ho       0.00000000       0.00000000       0.00000000       0.00000000       0.00000000       0.45819476
Ho       0.00000000       0.00000000       5.82121212       0.00000000       0.00000000      -0.45819476
2
Properties=species:S:1:pos:R:3:forces:R:3 energy=-0.6777161642866644 pbc="F F F"
Ho       0.00000000       0.00000000       0.00000000       0.00000000       0.00000000       0.25429413
Ho       0.00000000       0.00000000       5.88080808       0.00000000       0.00000000      -0.25429413
2
Properties=species:S:1:pos:R:3:forces:R:3 energy=-0.6676382811226166 pbc="F F F"
Ho       0.00000000       0.00000000       0.00000000       0.00000000       0.00000000       0.09371223
Ho       0.00000000       0.00000000       5.94040404       0.00000000       0.00000000      -0.09371223
2
Properties=species:S:1:pos:R:3:forces:R:3 energy=-0.6644688583583755 pbc="F F F"
Ho       0.00000000       0.00000000       0.00000000       0.00000000       0.00000000       0.03309826
Ho       0.00000000       0.00000000       6.00000000       0.00000000       0.00000000      -0.03309826
