2
Properties=species:S:1:pos:R:3:forces:R:3 energy=82717.5075568955 pbc="F F F"
Ir       0.00000000       0.00000000       0.00000000       0.00000000       0.00000000 -2096613.25000000
Ir       0.00000000       0.00000000       0.10000000       0.00000000       0.00000000 2096613.25000000
2
Properties=species:S:1:pos:R:3:forces:R:3 energy=22654.988025645507 pbc="F F F"
Ir       0.00000000       0.00000000       0.00000000       0.00000000       0.00000000 -429232.37500000
Ir       0.00000000       0.00000000       0.15959596       0.00000000       0.00000000  429232.37500000
2
Properties=species:S:1:pos:R:3:forces:R:3 energy=8129.144275645509 pbc="F F F"
Ir       0.00000000       0.00000000       0.00000000       0.00000000       0.00000000 -128184.61718750
Ir       0.00000000       0.00000000       0.21919192       0.00000000       0.00000000  128184.61718750
2
Properties=species:S:1:pos:R:3:forces:R:3 energy=3374.0949592424263 pbc="F F F"
Ir       0.00000000       0.00000000       0.00000000       0.00000000       0.00000000  -46802.17578125
Ir       0.00000000       0.00000000       0.27878788       0.00000000       0.00000000   46802.17578125
2
Properties=species:S:1:pos:R:3:forces:R:3 energy=1540.4260139299263 pbc="F F F"
Ir       0.00000000       0.00000000       0.00000000       0.00000000       0.00000000  -19247.33789062
Ir       0.00000000       0.00000000       0.33838384       0.00000000       0.00000000   19247.33789062
2
Properties=species:S:1:pos:R:3:forces:R:3 energy=757.8359260424692 pbc="F F F"
Ir       0.00000000       0.00000000       0.00000000       0.00000000       0.00000000   -8587.78613281
Ir       0.00000000       0.00000000       0.39797980       0.00000000       0.00000000    8587.78613281
2
Properties=species:S:1:pos:R:3:forces:R:3 energy=398.44673538131235 pbc="F F F"
Ir       0.00000000       0.00000000       0.00000000       0.00000000       0.00000000   -4083.73583984
Ir       0.00000000       0.00000000       0.45757576       0.00000000       0.00000000    4083.73583984
2
Properties=species:S:1:pos:R:3:forces:R:3 energy=223.3756447020771 pbc="F F F"
Ir       0.00000000       0.00000000       0.00000000       0.00000000       0.00000000   -2047.52648926
Ir       0.00000000       0.00000000       0.51717172       0.00000000       0.00000000    2047.52648926
2
Properties=species:S:1:pos:R:3:forces:R:3 energy=133.8097878064972 pbc="F F F"
Ir       0.00000000       0.00000000       0.00000000       0.00000000       0.00000000   -1072.33886719
Ir       0.00000000       0.00000000       0.57676768       0.00000000       0.00000000    1072.33886719
2
Properties=species:S:1:pos:R:3:forces:R:3 energy=86.14529049436537 pbc="F F F"
Ir       0.00000000       0.00000000       0.00000000       0.00000000       0.00000000    -580.95111084
Ir       0.00000000       0.00000000       0.63636364       0.00000000       0.00000000     580.95111084
2
Properties=species:S:1:pos:R:3:forces:R:3 energy=60.03917715556214 pbc="F F F"
Ir       0.00000000       0.00000000       0.00000000       0.00000000       0.00000000    -321.51605225
Ir       0.00000000       0.00000000       0.69595960       0.00000000       0.00000000     321.51605225
2
Properties=species:S:1:pos:R:3:forces:R:3 energy=45.55828512622112 pbc="F F F"
Ir       0.00000000       0.00000000       0.00000000       0.00000000       0.00000000    -178.04324341
Ir       0.00000000       0.00000000       0.75555556       0.00000000       0.00000000     178.04324341
2
Properties=species:S:1:pos:R:3:forces:R:3 energy=37.60379087481813 pbc="F F F"
Ir       0.00000000       0.00000000       0.00000000       0.00000000       0.00000000     -96.55335236
Ir       0.00000000       0.00000000       0.81515152       0.00000000       0.00000000      96.55335236
2
Properties=species:S:1:pos:R:3:forces:R:3 energy=33.338665926445614 pbc="F F F"
Ir       0.00000000       0.00000000       0.00000000       0.00000000       0.00000000     -51.23530579
Ir       0.00000000       0.00000000       0.87474747       0.00000000       0.00000000      51.23530579
2
Properties=species:S:1:pos:R:3:forces:R:3 energy=31.053567359406628 pbc="F F F"
Ir       0.00000000       0.00000000       0.00000000       0.00000000       0.00000000     -28.41758156
Ir       0.00000000       0.00000000       0.93434343       0.00000000       0.00000000      28.41758156
2
Properties=species:S:1:pos:R:3:forces:R:3 energy=29.661783331337954 pbc="F F F"
Ir       0.00000000       0.00000000       0.00000000       0.00000000       0.00000000     -20.29465103
Ir       0.00000000       0.00000000       0.99393939       0.00000000       0.00000000      20.29465103
2
Properties=species:S:1:pos:R:3:forces:R:3 energy=28.43418410166497 pbc="F F F"
Ir       0.00000000       0.00000000       0.00000000       0.00000000       0.00000000     -22.28091240
Ir       0.00000000       0.00000000       1.05353535       0.00000000       0.00000000      22.28091240
2
Properties=species:S:1:pos:R:3:forces:R:3 energy=26.87997841927899 pbc="F F F"
Ir       0.00000000       0.00000000       0.00000000       0.00000000       0.00000000     -30.58409119
Ir       0.00000000       0.00000000       1.11313131       0.00000000       0.00000000      30.58409119
2
Properties=species:S:1:pos:R:3:forces:R:3 energy=24.753129817995436 pbc="F F F"
Ir       0.00000000       0.00000000       0.00000000       0.00000000       0.00000000     -40.67342377
Ir       0.00000000       0.00000000       1.17272727       0.00000000       0.00000000      40.67342377
2
Properties=species:S:1:pos:R:3:forces:R:3 energy=22.081901491225636 pbc="F F F"
Ir       0.00000000       0.00000000       0.00000000       0.00000000       0.00000000     -48.43161392
Ir       0.00000000       0.00000000       1.23232323       0.00000000       0.00000000      48.43161392
2
Properties=species:S:1:pos:R:3:forces:R:3 energy=19.03165685844312 pbc="F F F"
Ir       0.00000000       0.00000000       0.00000000       0.00000000       0.00000000     -53.62154007
Ir       0.00000000       0.00000000       1.29191919       0.00000000       0.00000000      53.62154007
2
Properties=species:S:1:pos:R:3:forces:R:3 energy=15.730465908146174 pbc="F F F"
Ir       0.00000000       0.00000000       0.00000000       0.00000000       0.00000000     -56.74118805
Ir       0.00000000       0.00000000       1.35151515       0.00000000       0.00000000      56.74118805
2
Properties=species:S:1:pos:R:3:forces:R:3 energy=12.326075841688649 pbc="F F F"
Ir       0.00000000       0.00000000       0.00000000       0.00000000       0.00000000     -57.02478027
Ir       0.00000000       0.00000000       1.41111111       0.00000000       0.00000000      57.02478027
2
Properties=species:S:1:pos:R:3:forces:R:3 energy=8.98525297781302 pbc="F F F"
Ir       0.00000000       0.00000000       0.00000000       0.00000000       0.00000000     -54.70991135
Ir       0.00000000       0.00000000       1.47070707       0.00000000       0.00000000      54.70991135
2
Properties=species:S:1:pos:R:3:forces:R:3 energy=5.845663242513521 pbc="F F F"
Ir       0.00000000       0.00000000       0.00000000       0.00000000       0.00000000     -50.34487534
Ir       0.00000000       0.00000000       1.53030303       0.00000000       0.00000000      50.34487534
2
Properties=species:S:1:pos:R:3:forces:R:3 energy=3.0170171279128932 pbc="F F F"
Ir       0.00000000       0.00000000       0.00000000       0.00000000       0.00000000     -44.35786438
Ir       0.00000000       0.00000000       1.58989899       0.00000000       0.00000000      44.35786438
2
Properties=species:S:1:pos:R:3:forces:R:3 energy=0.5770418306120364 pbc="F F F"
Ir       0.00000000       0.00000000       0.00000000       0.00000000       0.00000000     -37.45169830
Ir       0.00000000       0.00000000       1.64949495       0.00000000       0.00000000      37.45169830
2
Properties=species:S:1:pos:R:3:forces:R:3 energy=-1.4471476470085045 pbc="F F F"
Ir       0.00000000       0.00000000       0.00000000       0.00000000       0.00000000     -30.53798676
Ir       0.00000000       0.00000000       1.70909091       0.00000000       0.00000000      30.53798676
2
Properties=species:S:1:pos:R:3:forces:R:3 energy=-3.0731905019508936 pbc="F F F"
Ir       0.00000000       0.00000000       0.00000000       0.00000000       0.00000000     -24.13322067
Ir       0.00000000       0.00000000       1.76868687       0.00000000       0.00000000      24.13322067
2
Properties=species:S:1:pos:R:3:forces:R:3 energy=-4.337064168661596 pbc="F F F"
Ir       0.00000000       0.00000000       0.00000000       0.00000000       0.00000000     -18.40802383
Ir       0.00000000       0.00000000       1.82828283       0.00000000       0.00000000      18.40802383
2
Properties=species:S:1:pos:R:3:forces:R:3 energy=-5.284419806064332 pbc="F F F"
Ir       0.00000000       0.00000000       0.00000000       0.00000000       0.00000000     -13.54340076
Ir       0.00000000       0.00000000       1.88787879       0.00000000       0.00000000      13.54340076
2
Properties=species:S:1:pos:R:3:forces:R:3 energy=-5.970956770288592 pbc="F F F"
Ir       0.00000000       0.00000000       0.00000000       0.00000000       0.00000000      -9.65816307
Ir       0.00000000       0.00000000       1.94747475       0.00000000       0.00000000       9.65816307
2
Properties=species:S:1:pos:R:3:forces:R:3 energy=-6.453238492088173 pbc="F F F"
Ir       0.00000000       0.00000000       0.00000000       0.00000000       0.00000000      -6.65662622
Ir       0.00000000       0.00000000       2.00707071       0.00000000       0.00000000       6.65662622
2
Properties=species:S:1:pos:R:3:forces:R:3 energy=-6.777432052721563 pbc="F F F"
Ir       0.00000000       0.00000000       0.00000000       0.00000000       0.00000000      -4.31434631
Ir       0.00000000       0.00000000       2.06666667       0.00000000       0.00000000       4.31434631
2
Properties=species:S:1:pos:R:3:forces:R:3 energy=-6.976672566938518 pbc="F F F"
Ir       0.00000000       0.00000000       0.00000000       0.00000000       0.00000000      -2.43774533
Ir       0.00000000       0.00000000       2.12626263       0.00000000       0.00000000       2.43774533
2
Properties=species:S:1:pos:R:3:forces:R:3 energy=-7.0748210125992435 pbc="F F F"
Ir       0.00000000       0.00000000       0.00000000       0.00000000       0.00000000      -0.90630060
Ir       0.00000000       0.00000000       2.18585859       0.00000000       0.00000000       0.90630060
2
Properties=species:S:1:pos:R:3:forces:R:3 energy=-7.090060315798447 pbc="F F F"
Ir       0.00000000       0.00000000       0.00000000       0.00000000       0.00000000       0.35382563
Ir       0.00000000       0.00000000       2.24545455       0.00000000       0.00000000      -0.35382563
2
Properties=species:S:1:pos:R:3:forces:R:3 energy=-7.037260478050042 pbc="F F F"
Ir       0.00000000       0.00000000       0.00000000       0.00000000       0.00000000       1.38080966
Ir       0.00000000       0.00000000       2.30505051       0.00000000       0.00000000      -1.38080966
2
Properties=species:S:1:pos:R:3:forces:R:3 energy=-6.929838144730824 pbc="F F F"
Ir       0.00000000       0.00000000       0.00000000       0.00000000       0.00000000       2.18832970
Ir       0.00000000       0.00000000       2.36464646       0.00000000       0.00000000      -2.18832970
2
Properties=species:S:1:pos:R:3:forces:R:3 energy=-6.780591809459508 pbc="F F F"
Ir       0.00000000       0.00000000       0.00000000       0.00000000       0.00000000       2.78677678
Ir       0.00000000       0.00000000       2.42424242       0.00000000       0.00000000      -2.78677678
2
Properties=species:S:1:pos:R:3:forces:R:3 energy=-6.601436657376516 pbc="F F F"
Ir       0.00000000       0.00000000       0.00000000       0.00000000       0.00000000       3.19631219
Ir       0.00000000       0.00000000       2.48383838       0.00000000       0.00000000      -3.19631219
2
Properties=species:S:1:pos:R:3:forces:R:3 energy=-6.402810132171307 pbc="F F F"
Ir       0.00000000       0.00000000       0.00000000       0.00000000       0.00000000       3.44509339
Ir       0.00000000       0.00000000       2.54343434       0.00000000       0.00000000      -3.44509339
2
Properties=species:S:1:pos:R:3:forces:R:3 energy=-6.193429443219643 pbc="F F F"
Ir       0.00000000       0.00000000       0.00000000       0.00000000       0.00000000       3.56198764
Ir       0.00000000       0.00000000       2.60303030       0.00000000       0.00000000      -3.56198764
2
Properties=species:S:1:pos:R:3:forces:R:3 energy=-5.980329701506876 pbc="F F F"
Ir       0.00000000       0.00000000       0.00000000       0.00000000       0.00000000       3.57405782
Ir       0.00000000       0.00000000       2.66262626       0.00000000       0.00000000      -3.57405782
2
Properties=species:S:1:pos:R:3:forces:R:3 energy=-5.769073649625626 pbc="F F F"
Ir       0.00000000       0.00000000       0.00000000       0.00000000       0.00000000       3.50293970
Ir       0.00000000       0.00000000       2.72222222       0.00000000       0.00000000      -3.50293970
2
Properties=species:S:1:pos:R:3:forces:R:3 energy=-5.564218298477649 pbc="F F F"
Ir       0.00000000       0.00000000       0.00000000       0.00000000       0.00000000       3.36105561
Ir       0.00000000       0.00000000       2.78181818       0.00000000       0.00000000      -3.36105561
2
Properties=species:S:1:pos:R:3:forces:R:3 energy=-5.369525161706427 pbc="F F F"
Ir       0.00000000       0.00000000       0.00000000       0.00000000       0.00000000       3.16614556
Ir       0.00000000       0.00000000       2.84141414       0.00000000       0.00000000      -3.16614556
2
Properties=species:S:1:pos:R:3:forces:R:3 energy=-5.187304470671786 pbc="F F F"
Ir       0.00000000       0.00000000       0.00000000       0.00000000       0.00000000       2.94780517
Ir       0.00000000       0.00000000       2.90101010       0.00000000       0.00000000      -2.94780517
2
Properties=species:S:1:pos:R:3:forces:R:3 energy=-5.018083075249172 pbc="F F F"
Ir       0.00000000       0.00000000       0.00000000       0.00000000       0.00000000       2.73344231
Ir       0.00000000       0.00000000       2.96060606       0.00000000       0.00000000      -2.73344231
2
Properties=species:S:1:pos:R:3:forces:R:3 energy=-4.861095800098047 pbc="F F F"
Ir       0.00000000       0.00000000       0.00000000       0.00000000       0.00000000       2.53891921
Ir       0.00000000       0.00000000       3.02020202       0.00000000       0.00000000      -2.53891921
2
Properties=species:S:1:pos:R:3:forces:R:3 energy=-4.71496756851718 pbc="F F F"
Ir       0.00000000       0.00000000       0.00000000       0.00000000       0.00000000       2.36919904
Ir       0.00000000       0.00000000       3.07979798       0.00000000       0.00000000      -2.36919904
2
Properties=species:S:1:pos:R:3:forces:R:3 energy=-4.578245563792979 pbc="F F F"
Ir       0.00000000       0.00000000       0.00000000       0.00000000       0.00000000       2.22259903
Ir       0.00000000       0.00000000       3.13939394       0.00000000       0.00000000      -2.22259903
2
Properties=species:S:1:pos:R:3:forces:R:3 energy=-4.44968232590676 pbc="F F F"
Ir       0.00000000       0.00000000       0.00000000       0.00000000       0.00000000       2.09455156
Ir       0.00000000       0.00000000       3.19898990       0.00000000       0.00000000      -2.09455156
2
Properties=species:S:1:pos:R:3:forces:R:3 energy=-4.328332234744516 pbc="F F F"
Ir       0.00000000       0.00000000       0.00000000       0.00000000       0.00000000       1.97954893
Ir       0.00000000       0.00000000       3.25858586       0.00000000       0.00000000      -1.97954893
2
Properties=species:S:1:pos:R:3:forces:R:3 energy=-4.2135950683492 pbc="F F F"
Ir       0.00000000       0.00000000       0.00000000       0.00000000       0.00000000       1.87163854
Ir       0.00000000       0.00000000       3.31818182       0.00000000       0.00000000      -1.87163854
2
Properties=species:S:1:pos:R:3:forces:R:3 energy=-4.105231233039545 pbc="F F F"
Ir       0.00000000       0.00000000       0.00000000       0.00000000       0.00000000       1.76464641
Ir       0.00000000       0.00000000       3.37777778       0.00000000       0.00000000      -1.76464641
2
Properties=species:S:1:pos:R:3:forces:R:3 energy=-4.003356096049054 pbc="F F F"
Ir       0.00000000       0.00000000       0.00000000       0.00000000       0.00000000       1.65309846
Ir       0.00000000       0.00000000       3.43737374       0.00000000       0.00000000      -1.65309846
2
Properties=species:S:1:pos:R:3:forces:R:3 energy=-3.9083508193133243 pbc="F F F"
Ir       0.00000000       0.00000000       0.00000000       0.00000000       0.00000000       1.53383613
Ir       0.00000000       0.00000000       3.49696970       0.00000000       0.00000000      -1.53383613
2
Properties=species:S:1:pos:R:3:forces:R:3 energy=-3.820681745893036 pbc="F F F"
Ir       0.00000000       0.00000000       0.00000000       0.00000000       0.00000000       1.40729356
Ir       0.00000000       0.00000000       3.55656566       0.00000000       0.00000000      -1.40729356
2
Properties=species:S:1:pos:R:3:forces:R:3 energy=-3.740681280628477 pbc="F F F"
Ir       0.00000000       0.00000000       0.00000000       0.00000000       0.00000000       1.27736866
Ir       0.00000000       0.00000000       3.61616162       0.00000000       0.00000000      -1.27736866
2
Properties=species:S:1:pos:R:3:forces:R:3 energy=-3.668382064850077 pbc="F F F"
Ir       0.00000000       0.00000000       0.00000000       0.00000000       0.00000000       1.14984214
Ir       0.00000000       0.00000000       3.67575758       0.00000000       0.00000000      -1.14984214
2
Properties=species:S:1:pos:R:3:forces:R:3 energy=-3.6034703223646423 pbc="F F F"
Ir       0.00000000       0.00000000       0.00000000       0.00000000       0.00000000       1.03025961
Ir       0.00000000       0.00000000       3.73535354       0.00000000       0.00000000      -1.03025961
2
Properties=species:S:1:pos:R:3:forces:R:3 energy=-3.5453489580154387 pbc="F F F"
Ir       0.00000000       0.00000000       0.00000000       0.00000000       0.00000000       0.92241108
Ir       0.00000000       0.00000000       3.79494949       0.00000000       0.00000000      -0.92241108
2
Properties=species:S:1:pos:R:3:forces:R:3 energy=-3.4932597000226817 pbc="F F F"
Ir       0.00000000       0.00000000       0.00000000       0.00000000       0.00000000       0.82791835
Ir       0.00000000       0.00000000       3.85454545       0.00000000       0.00000000      -0.82791835
2
Properties=species:S:1:pos:R:3:forces:R:3 energy=-3.4464040518949717 pbc="F F F"
Ir       0.00000000       0.00000000       0.00000000       0.00000000       0.00000000       0.74667895
Ir       0.00000000       0.00000000       3.91414141       0.00000000       0.00000000      -0.74667895
2
Properties=species:S:1:pos:R:3:forces:R:3 energy=-3.404020104393449 pbc="F F F"
Ir       0.00000000       0.00000000       0.00000000       0.00000000       0.00000000       0.67758131
Ir       0.00000000       0.00000000       3.97373737       0.00000000       0.00000000      -0.67758131
2
Properties=species:S:1:pos:R:3:forces:R:3 energy=-3.3654308893219267 pbc="F F F"
Ir       0.00000000       0.00000000       0.00000000       0.00000000       0.00000000       0.61908942
Ir       0.00000000       0.00000000       4.03333333       0.00000000       0.00000000      -0.61908942
2
Properties=species:S:1:pos:R:3:forces:R:3 energy=-3.330051755495648 pbc="F F F"
Ir       0.00000000       0.00000000       0.00000000       0.00000000       0.00000000       0.56955665
Ir       0.00000000       0.00000000       4.09292929       0.00000000       0.00000000      -0.56955665
2
Properties=species:S:1:pos:R:3:forces:R:3 energy=-3.297398245225945 pbc="F F F"
Ir       0.00000000       0.00000000       0.00000000       0.00000000       0.00000000       0.52735841
Ir       0.00000000       0.00000000       4.15252525       0.00000000       0.00000000      -0.52735841
2
Properties=species:S:1:pos:R:3:forces:R:3 energy=-3.2670803794419037 pbc="F F F"
Ir       0.00000000       0.00000000       0.00000000       0.00000000       0.00000000       0.49094456
Ir       0.00000000       0.00000000       4.21212121       0.00000000       0.00000000      -0.49094456
2
Properties=species:S:1:pos:R:3:forces:R:3 energy=-3.2387957403837477 pbc="F F F"
Ir       0.00000000       0.00000000       0.00000000       0.00000000       0.00000000       0.45886734
Ir       0.00000000       0.00000000       4.27171717       0.00000000       0.00000000      -0.45886734
2
Properties=species:S:1:pos:R:3:forces:R:3 energy=-3.2123268331593557 pbc="F F F"
Ir       0.00000000       0.00000000       0.00000000       0.00000000       0.00000000       0.42982095
Ir       0.00000000       0.00000000       4.33131313       0.00000000       0.00000000      -0.42982095
2
Properties=species:S:1:pos:R:3:forces:R:3 energy=-3.187527591751838 pbc="F F F"
Ir       0.00000000       0.00000000       0.00000000       0.00000000       0.00000000       0.40264711
Ir       0.00000000       0.00000000       4.39090909       0.00000000       0.00000000      -0.40264711
2
Properties=species:S:1:pos:R:3:forces:R:3 energy=-3.1643170629270574 pbc="F F F"
Ir       0.00000000       0.00000000       0.00000000       0.00000000       0.00000000       0.37635583
Ir       0.00000000       0.00000000       4.45050505       0.00000000       0.00000000      -0.37635583
2
Properties=species:S:1:pos:R:3:forces:R:3 energy=-3.1426677142197894 pbc="F F F"
Ir       0.00000000       0.00000000       0.00000000       0.00000000       0.00000000       0.35014457
Ir       0.00000000       0.00000000       4.51010101       0.00000000       0.00000000      -0.35014457
2
Properties=species:S:1:pos:R:3:forces:R:3 energy=-3.1225927225532137 pbc="F F F"
Ir       0.00000000       0.00000000       0.00000000       0.00000000       0.00000000       0.32341871
Ir       0.00000000       0.00000000       4.56969697       0.00000000       0.00000000      -0.32341871
2
Properties=species:S:1:pos:R:3:forces:R:3 energy=-3.104135343605344 pbc="F F F"
Ir       0.00000000       0.00000000       0.00000000       0.00000000       0.00000000       0.29584691
Ir       0.00000000       0.00000000       4.62929293       0.00000000       0.00000000      -0.29584691
2
Properties=species:S:1:pos:R:3:forces:R:3 energy=-3.087347906463405 pbc="F F F"
Ir       0.00000000       0.00000000       0.00000000       0.00000000       0.00000000       0.26741964
Ir       0.00000000       0.00000000       4.68888889       0.00000000       0.00000000      -0.26741964
2
Properties=species:S:1:pos:R:3:forces:R:3 energy=-3.072271538541145 pbc="F F F"
Ir       0.00000000       0.00000000       0.00000000       0.00000000       0.00000000       0.23848088
Ir       0.00000000       0.00000000       4.74848485       0.00000000       0.00000000      -0.23848088
2
Properties=species:S:1:pos:R:3:forces:R:3 energy=-3.0589195119562596 pbc="F F F"
Ir       0.00000000       0.00000000       0.00000000       0.00000000       0.00000000       0.20972364
Ir       0.00000000       0.00000000       4.80808081       0.00000000       0.00000000      -0.20972364
2
Properties=species:S:1:pos:R:3:forces:R:3 energy=-3.0472525113546056 pbc="F F F"
Ir       0.00000000       0.00000000       0.00000000       0.00000000       0.00000000       0.18206471
Ir       0.00000000       0.00000000       4.86767677       0.00000000       0.00000000      -0.18206471
2
Properties=species:S:1:pos:R:3:forces:R:3 energy=-3.037177057678911 pbc="F F F"
Ir       0.00000000       0.00000000       0.00000000       0.00000000       0.00000000       0.15647131
Ir       0.00000000       0.00000000       4.92727273       0.00000000       0.00000000      -0.15647131
2
Properties=species:S:1:pos:R:3:forces:R:3 energy=-3.0285452317363295 pbc="F F F"
Ir       0.00000000       0.00000000       0.00000000       0.00000000       0.00000000       0.13372906
Ir       0.00000000       0.00000000       4.98686869       0.00000000       0.00000000      -0.13372906
2
Properties=species:S:1:pos:R:3:forces:R:3 energy=-3.0211713904254642 pbc="F F F"
Ir       0.00000000       0.00000000       0.00000000       0.00000000       0.00000000       0.11435433
Ir       0.00000000       0.00000000       5.04646465       0.00000000       0.00000000      -0.11435433
2
Properties=species:S:1:pos:R:3:forces:R:3 energy=-3.0148392385142766 pbc="F F F"
Ir       0.00000000       0.00000000       0.00000000       0.00000000       0.00000000       0.09886950
Ir       0.00000000       0.00000000       5.10606061       0.00000000       0.00000000      -0.09886950
2
Properties=species:S:1:pos:R:3:forces:R:3 energy=-3.0092854632893276 pbc="F F F"
Ir       0.00000000       0.00000000       0.00000000       0.00000000       0.00000000       0.08849190
Ir       0.00000000       0.00000000       5.16565657       0.00000000       0.00000000      -0.08849190
2
Properties=species:S:1:pos:R:3:forces:R:3 energy=-3.004149892401456 pbc="F F F"
Ir       0.00000000       0.00000000       0.00000000       0.00000000       0.00000000       0.08518229
Ir       0.00000000       0.00000000       5.22525253       0.00000000       0.00000000      -0.08518229
2
Properties=species:S:1:pos:R:3:forces:R:3 energy=-2.9989833521754212 pbc="F F F"
Ir       0.00000000       0.00000000       0.00000000       0.00000000       0.00000000       0.08920947
Ir       0.00000000       0.00000000       5.28484848       0.00000000       0.00000000      -0.08920947
2
Properties=species:S:1:pos:R:3:forces:R:3 energy=-2.993461652620424 pbc="F F F"
Ir       0.00000000       0.00000000       0.00000000       0.00000000       0.00000000       0.09590800
Ir       0.00000000       0.00000000       5.34444444       0.00000000       0.00000000      -0.09590800
2
Properties=species:S:1:pos:R:3:forces:R:3 energy=-2.9876387531150645 pbc="F F F"
Ir       0.00000000       0.00000000       0.00000000       0.00000000       0.00000000       0.09843536
Ir       0.00000000       0.00000000       5.40404040       0.00000000       0.00000000      -0.09843536
2
Properties=species:S:1:pos:R:3:forces:R:3 energy=-2.9818469648091015 pbc="F F F"
Ir       0.00000000       0.00000000       0.00000000       0.00000000       0.00000000       0.09520777
Ir       0.00000000       0.00000000       5.46363636       0.00000000       0.00000000      -0.09520777
2
Properties=species:S:1:pos:R:3:forces:R:3 energy=-2.976310486778013 pbc="F F F"
Ir       0.00000000       0.00000000       0.00000000       0.00000000       0.00000000       0.09108986
Ir       0.00000000       0.00000000       5.52323232       0.00000000       0.00000000      -0.09108986
2
Properties=species:S:1:pos:R:3:forces:R:3 energy=-2.9708970530591277 pbc="F F F"
Ir       0.00000000       0.00000000       0.00000000       0.00000000       0.00000000       0.09149909
Ir       0.00000000       0.00000000       5.58282828       0.00000000       0.00000000      -0.09149909
2
Properties=species:S:1:pos:R:3:forces:R:3 energy=-2.9653346567239405 pbc="F F F"
Ir       0.00000000       0.00000000       0.00000000       0.00000000       0.00000000       0.09512590
Ir       0.00000000       0.00000000       5.64242424       0.00000000       0.00000000      -0.09512590
2
Properties=species:S:1:pos:R:3:forces:R:3 energy=-2.959669402249006 pbc="F F F"
Ir       0.00000000       0.00000000       0.00000000       0.00000000       0.00000000       0.09311174
Ir       0.00000000       0.00000000       5.70202020       0.00000000       0.00000000      -0.09311174
2
Properties=species:S:1:pos:R:3:forces:R:3 energy=-2.954488205891842 pbc="F F F"
Ir       0.00000000       0.00000000       0.00000000       0.00000000       0.00000000       0.07895678
Ir       0.00000000       0.00000000       5.76161616       0.00000000       0.00000000      -0.07895678
2
Properties=species:S:1:pos:R:3:forces:R:3 energy=-2.950437453922299 pbc="F F F"
Ir       0.00000000       0.00000000       0.00000000       0.00000000       0.00000000       0.05609411
Ir       0.00000000       0.00000000       5.82121212       0.00000000       0.00000000      -0.05609411
2
Properties=species:S:1:pos:R:3:forces:R:3 energy=-2.9478129836470854 pbc="F F F"
Ir       0.00000000       0.00000000       0.00000000       0.00000000       0.00000000       0.03285629
Ir       0.00000000       0.00000000       5.88080808       0.00000000       0.00000000      -0.03285629
2
Properties=species:S:1:pos:R:3:forces:R:3 energy=-2.9463888980780144 pbc="F F F"
Ir       0.00000000       0.00000000       0.00000000       0.00000000       0.00000000       0.01609913
Ir       0.00000000       0.00000000       5.94040404       0.00000000       0.00000000      -0.01609913
2
Properties=species:S:1:pos:R:3:forces:R:3 energy=-2.9456820172776923 pbc="F F F"
Ir       0.00000000       0.00000000       0.00000000       0.00000000       0.00000000       0.00964539
Ir       0.00000000       0.00000000       6.00000000       0.00000000       0.00000000      -0.00964539
