2
Properties=species:S:1:pos:R:3:forces:R:3 energy=5421.368739102446 pbc="F F F"
Kr       0.00000000       0.00000000       0.00000000       0.00000000       0.00000000  -87404.60937500
Kr       0.00000000       0.00000000       0.18000000       0.00000000       0.00000000   87404.60937500
2
Properties=species:S:1:pos:R:3:forces:R:3 energy=2276.5142469181137 pbc="F F F"
Kr       0.00000000       0.00000000       0.00000000       0.00000000       0.00000000  -31001.83007812
Kr       0.00000000       0.00000000       0.23878788       0.00000000       0.00000000   31001.83007812
2
Properties=species:S:1:pos:R:3:forces:R:3 energy=1073.2662000462815 pbc="F F F"
Kr       0.00000000       0.00000000       0.00000000       0.00000000       0.00000000  -12957.71777344
Kr       0.00000000       0.00000000       0.29757576       0.00000000       0.00000000   12957.71777344
2
Properties=species:S:1:pos:R:3:forces:R:3 energy=545.4413099158983 pbc="F F F"
Kr       0.00000000       0.00000000       0.00000000       0.00000000       0.00000000   -6005.44384766
Kr       0.00000000       0.00000000       0.35636364       0.00000000       0.00000000    6005.44384766
2
Properties=species:S:1:pos:R:3:forces:R:3 energy=292.67937755235494 pbc="F F F"
Kr       0.00000000       0.00000000       0.00000000       0.00000000       0.00000000   -2984.89746094
Kr       0.00000000       0.00000000       0.41515152       0.00000000       0.00000000    2984.89746094
2
Properties=species:S:1:pos:R:3:forces:R:3 energy=163.97509291289657 pbc="F F F"
Kr       0.00000000       0.00000000       0.00000000       0.00000000       0.00000000   -1562.79333496
Kr       0.00000000       0.00000000       0.47393939       0.00000000       0.00000000    1562.79333496
2
Properties=species:S:1:pos:R:3:forces:R:3 energy=95.25800616525389 pbc="F F F"
Kr       0.00000000       0.00000000       0.00000000       0.00000000       0.00000000    -853.64410400
Kr       0.00000000       0.00000000       0.53272727       0.00000000       0.00000000     853.64410400
2
Properties=species:S:1:pos:R:3:forces:R:3 energy=57.079440268613354 pbc="F F F"
Kr       0.00000000       0.00000000       0.00000000       0.00000000       0.00000000    -483.77566528
Kr       0.00000000       0.00000000       0.59151515       0.00000000       0.00000000     483.77566528
2
Properties=species:S:1:pos:R:3:forces:R:3 energy=35.11170511747018 pbc="F F F"
Kr       0.00000000       0.00000000       0.00000000       0.00000000       0.00000000    -283.30007935
Kr       0.00000000       0.00000000       0.65030303       0.00000000       0.00000000     283.30007935
2
Properties=species:S:1:pos:R:3:forces:R:3 energy=22.070302516109628 pbc="F F F"
Kr       0.00000000       0.00000000       0.00000000       0.00000000       0.00000000    -170.83494568
Kr       0.00000000       0.00000000       0.70909091       0.00000000       0.00000000     170.83494568
2
Properties=species:S:1:pos:R:3:forces:R:3 energy=14.110210297839645 pbc="F F F"
Kr       0.00000000       0.00000000       0.00000000       0.00000000       0.00000000    -105.69989014
Kr       0.00000000       0.00000000       0.76787879       0.00000000       0.00000000     105.69989014
2
Properties=species:S:1:pos:R:3:forces:R:3 energy=9.133785608450173 pbc="F F F"
Kr       0.00000000       0.00000000       0.00000000       0.00000000       0.00000000     -66.83766174
Kr       0.00000000       0.00000000       0.82666667       0.00000000       0.00000000      66.83766174
2
Properties=species:S:1:pos:R:3:forces:R:3 energy=5.960025408074708 pbc="F F F"
Kr       0.00000000       0.00000000       0.00000000       0.00000000       0.00000000     -43.02079773
Kr       0.00000000       0.00000000       0.88545455       0.00000000       0.00000000      43.02079773
2
Properties=species:S:1:pos:R:3:forces:R:3 energy=3.9033847987539696 pbc="F F F"
Kr       0.00000000       0.00000000       0.00000000       0.00000000       0.00000000     -28.07629204
Kr       0.00000000       0.00000000       0.94424242       0.00000000       0.00000000      28.07629204
2
Properties=species:S:1:pos:R:3:forces:R:3 energy=2.554523954898354 pbc="F F F"
Kr       0.00000000       0.00000000       0.00000000       0.00000000       0.00000000     -18.50647736
Kr       0.00000000       0.00000000       1.00303030       0.00000000       0.00000000      18.50647736
2
Properties=species:S:1:pos:R:3:forces:R:3 energy=1.6625887367805379 pbc="F F F"
Kr       0.00000000       0.00000000       0.00000000       0.00000000       0.00000000     -12.27386379
Kr       0.00000000       0.00000000       1.06181818       0.00000000       0.00000000      12.27386379
2
Properties=species:S:1:pos:R:3:forces:R:3 energy=1.0702580405983937 pbc="F F F"
Kr       0.00000000       0.00000000       0.00000000       0.00000000       0.00000000      -8.15664959
Kr       0.00000000       0.00000000       1.12060606       0.00000000       0.00000000       8.15664959
2
Properties=species:S:1:pos:R:3:forces:R:3 energy=0.6770091426215568 pbc="F F F"
Kr       0.00000000       0.00000000       0.00000000       0.00000000       0.00000000      -5.40370083
Kr       0.00000000       0.00000000       1.17939394       0.00000000       0.00000000       5.40370083
2
Properties=species:S:1:pos:R:3:forces:R:3 energy=0.41748680013545736 pbc="F F F"
Kr       0.00000000       0.00000000       0.00000000       0.00000000       0.00000000      -3.54530001
Kr       0.00000000       0.00000000       1.23818182       0.00000000       0.00000000       3.54530001
2
Properties=species:S:1:pos:R:3:forces:R:3 energy=0.24871183595508706 pbc="F F F"
Kr       0.00000000       0.00000000       0.00000000       0.00000000       0.00000000      -2.27442241
Kr       0.00000000       0.00000000       1.29696970       0.00000000       0.00000000       2.27442241
2
Properties=species:S:1:pos:R:3:forces:R:3 energy=0.14277603692686064 pbc="F F F"
Kr       0.00000000       0.00000000       0.00000000       0.00000000       0.00000000      -1.37810373
Kr       0.00000000       0.00000000       1.35575758       0.00000000       0.00000000       1.37810373
2
Properties=species:S:1:pos:R:3:forces:R:3 energy=0.08213902039125424 pbc="F F F"
Kr       0.00000000       0.00000000       0.00000000       0.00000000       0.00000000      -0.71593219
Kr       0.00000000       0.00000000       1.41454545       0.00000000       0.00000000       0.71593219
2
Properties=species:S:1:pos:R:3:forces:R:3 energy=0.05543450053963786 pbc="F F F"
Kr       0.00000000       0.00000000       0.00000000       0.00000000       0.00000000      -0.21709102
Kr       0.00000000       0.00000000       1.47333333       0.00000000       0.00000000       0.21709102
2
Properties=species:S:1:pos:R:3:forces:R:3 energy=0.05379553839483758 pbc="F F F"
Kr       0.00000000       0.00000000       0.00000000       0.00000000       0.00000000       0.13728637
Kr       0.00000000       0.00000000       1.53212121       0.00000000       0.00000000      -0.13728637
2
Properties=species:S:1:pos:R:3:forces:R:3 energy=0.068719219375269 pbc="F F F"
Kr       0.00000000       0.00000000       0.00000000       0.00000000       0.00000000       0.34611675
Kr       0.00000000       0.00000000       1.59090909       0.00000000       0.00000000      -0.34611675
2
Properties=species:S:1:pos:R:3:forces:R:3 energy=0.09171020244103228 pbc="F F F"
Kr       0.00000000       0.00000000       0.00000000       0.00000000       0.00000000       0.41362208
Kr       0.00000000       0.00000000       1.64969697       0.00000000       0.00000000      -0.41362208
2
Properties=species:S:1:pos:R:3:forces:R:3 energy=0.11495857280168417 pbc="F F F"
Kr       0.00000000       0.00000000       0.00000000       0.00000000       0.00000000       0.35957846
Kr       0.00000000       0.00000000       1.70848485       0.00000000       0.00000000      -0.35957846
2
Properties=species:S:1:pos:R:3:forces:R:3 energy=0.13229706493888085 pbc="F F F"
Kr       0.00000000       0.00000000       0.00000000       0.00000000       0.00000000       0.21958220
Kr       0.00000000       0.00000000       1.76727273       0.00000000       0.00000000      -0.21958220
2
Properties=species:S:1:pos:R:3:forces:R:3 energy=0.13997398677545236 pbc="F F F"
Kr       0.00000000       0.00000000       0.00000000       0.00000000       0.00000000       0.03859805
Kr       0.00000000       0.00000000       1.82606061       0.00000000       0.00000000      -0.03859805
2
Properties=species:S:1:pos:R:3:forces:R:3 energy=0.13688375647818227 pbc="F F F"
Kr       0.00000000       0.00000000       0.00000000       0.00000000       0.00000000      -0.14035828
Kr       0.00000000       0.00000000       1.88484848       0.00000000       0.00000000       0.14035828
2
Properties=species:S:1:pos:R:3:forces:R:3 energy=0.12412465423954427 pbc="F F F"
Kr       0.00000000       0.00000000       0.00000000       0.00000000       0.00000000      -0.28653353
Kr       0.00000000       0.00000000       1.94363636       0.00000000       0.00000000       0.28653353
2
Properties=species:S:1:pos:R:3:forces:R:3 energy=0.10413804050825537 pbc="F F F"
Kr       0.00000000       0.00000000       0.00000000       0.00000000       0.00000000      -0.38498980
Kr       0.00000000       0.00000000       2.00242424       0.00000000       0.00000000       0.38498980
2
Properties=species:S:1:pos:R:3:forces:R:3 energy=0.07983683195151803 pbc="F F F"
Kr       0.00000000       0.00000000       0.00000000       0.00000000       0.00000000      -0.43382508
Kr       0.00000000       0.00000000       2.06121212       0.00000000       0.00000000       0.43382508
2
Properties=species:S:1:pos:R:3:forces:R:3 energy=0.053984753925728185 pbc="F F F"
Kr       0.00000000       0.00000000       0.00000000       0.00000000       0.00000000      -0.43920487
Kr       0.00000000       0.00000000       2.12000000       0.00000000       0.00000000       0.43920487
2
Properties=species:S:1:pos:R:3:forces:R:3 energy=0.028853290403215603 pbc="F F F"
Kr       0.00000000       0.00000000       0.00000000       0.00000000       0.00000000      -0.41111803
Kr       0.00000000       0.00000000       2.17878788       0.00000000       0.00000000       0.41111803
2
Properties=species:S:1:pos:R:3:forces:R:3 energy=0.006087278666097564 pbc="F F F"
Kr       0.00000000       0.00000000       0.00000000       0.00000000       0.00000000      -0.36054918
Kr       0.00000000       0.00000000       2.23757576       0.00000000       0.00000000       0.36054918
2
Properties=species:S:1:pos:R:3:forces:R:3 energy=-0.0133017410713588 pbc="F F F"
Kr       0.00000000       0.00000000       0.00000000       0.00000000       0.00000000      -0.29784241
Kr       0.00000000       0.00000000       2.29636364       0.00000000       0.00000000       0.29784241
2
Properties=species:S:1:pos:R:3:forces:R:3 energy=-0.02886811673828049 pbc="F F F"
Kr       0.00000000       0.00000000       0.00000000       0.00000000       0.00000000      -0.23181033
Kr       0.00000000       0.00000000       2.35515152       0.00000000       0.00000000       0.23181033
2
Properties=species:S:1:pos:R:3:forces:R:3 energy=-0.040626409274278914 pbc="F F F"
Kr       0.00000000       0.00000000       0.00000000       0.00000000       0.00000000      -0.16925175
Kr       0.00000000       0.00000000       2.41393939       0.00000000       0.00000000       0.16925175
2
Properties=species:S:1:pos:R:3:forces:R:3 energy=-0.048929132707626055 pbc="F F F"
Kr       0.00000000       0.00000000       0.00000000       0.00000000       0.00000000      -0.11484154
Kr       0.00000000       0.00000000       2.47272727       0.00000000       0.00000000       0.11484154
2
Properties=species:S:1:pos:R:3:forces:R:3 energy=-0.05433883123470887 pbc="F F F"
Kr       0.00000000       0.00000000       0.00000000       0.00000000       0.00000000      -0.07107408
Kr       0.00000000       0.00000000       2.53151515       0.00000000       0.00000000       0.07107408
2
Properties=species:S:1:pos:R:3:forces:R:3 energy=-0.05750695736113763 pbc="F F F"
Kr       0.00000000       0.00000000       0.00000000       0.00000000       0.00000000      -0.03854691
Kr       0.00000000       0.00000000       2.59030303       0.00000000       0.00000000       0.03854691
2
Properties=species:S:1:pos:R:3:forces:R:3 energy=-0.05907484476612247 pbc="F F F"
Kr       0.00000000       0.00000000       0.00000000       0.00000000       0.00000000      -0.01638950
Kr       0.00000000       0.00000000       2.64909091       0.00000000       0.00000000       0.01638950
2
Properties=species:S:1:pos:R:3:forces:R:3 energy=-0.059601525405245916 pbc="F F F"
Kr       0.00000000       0.00000000       0.00000000       0.00000000       0.00000000      -0.00276728
Kr       0.00000000       0.00000000       2.70787879       0.00000000       0.00000000       0.00276728
2
Properties=species:S:1:pos:R:3:forces:R:3 energy=-0.05952289419664204 pbc="F F F"
Kr       0.00000000       0.00000000       0.00000000       0.00000000       0.00000000       0.00458967
Kr       0.00000000       0.00000000       2.76666667       0.00000000       0.00000000      -0.00458967
2
Properties=species:S:1:pos:R:3:forces:R:3 energy=-0.0591414531198181 pbc="F F F"
Kr       0.00000000       0.00000000       0.00000000       0.00000000       0.00000000       0.00786985
Kr       0.00000000       0.00000000       2.82545455       0.00000000       0.00000000      -0.00786985
2
Properties=species:S:1:pos:R:3:forces:R:3 energy=-0.05864345819593808 pbc="F F F"
Kr       0.00000000       0.00000000       0.00000000       0.00000000       0.00000000       0.00878618
Kr       0.00000000       0.00000000       2.88424242       0.00000000       0.00000000      -0.00878618
2
Properties=species:S:1:pos:R:3:forces:R:3 energy=-0.05813356245772576 pbc="F F F"
Kr       0.00000000       0.00000000       0.00000000       0.00000000       0.00000000       0.00839720
Kr       0.00000000       0.00000000       2.94303030       0.00000000       0.00000000      -0.00839720
2
Properties=species:S:1:pos:R:3:forces:R:3 energy=-0.05767254776900129 pbc="F F F"
Kr       0.00000000       0.00000000       0.00000000       0.00000000       0.00000000       0.00715802
Kr       0.00000000       0.00000000       3.00181818       0.00000000       0.00000000      -0.00715802
2
Properties=species:S:1:pos:R:3:forces:R:3 energy=-0.057307464122108076 pbc="F F F"
Kr       0.00000000       0.00000000       0.00000000       0.00000000       0.00000000       0.00512118
Kr       0.00000000       0.00000000       3.06060606       0.00000000       0.00000000      -0.00512118
2
Properties=species:S:1:pos:R:3:forces:R:3 energy=-0.05708819526941515 pbc="F F F"
Kr       0.00000000       0.00000000       0.00000000       0.00000000       0.00000000       0.00217887
Kr       0.00000000       0.00000000       3.11939394       0.00000000       0.00000000      -0.00217887
2
Properties=species:S:1:pos:R:3:forces:R:3 energy=-0.057070528212044225 pbc="F F F"
Kr       0.00000000       0.00000000       0.00000000       0.00000000       0.00000000      -0.00173907
Kr       0.00000000       0.00000000       3.17818182       0.00000000       0.00000000       0.00173907
2
Properties=species:S:1:pos:R:3:forces:R:3 energy=-0.05731027489527332 pbc="F F F"
Kr       0.00000000       0.00000000       0.00000000       0.00000000       0.00000000      -0.00654888
Kr       0.00000000       0.00000000       3.23696970       0.00000000       0.00000000       0.00654888
2
Properties=species:S:1:pos:R:3:forces:R:3 energy=-0.05785284327160024 pbc="F F F"
Kr       0.00000000       0.00000000       0.00000000       0.00000000       0.00000000      -0.01198163
Kr       0.00000000       0.00000000       3.29575758       0.00000000       0.00000000       0.01198163
2
Properties=species:S:1:pos:R:3:forces:R:3 energy=-0.05872310192728459 pbc="F F F"
Kr       0.00000000       0.00000000       0.00000000       0.00000000       0.00000000      -0.01761960
Kr       0.00000000       0.00000000       3.35454545       0.00000000       0.00000000       0.01761960
2
Properties=species:S:1:pos:R:3:forces:R:3 energy=-0.05991893254279069 pbc="F F F"
Kr       0.00000000       0.00000000       0.00000000       0.00000000       0.00000000      -0.02297586
Kr       0.00000000       0.00000000       3.41333333       0.00000000       0.00000000       0.02297586
2
Properties=species:S:1:pos:R:3:forces:R:3 energy=-0.06140986420666575 pbc="F F F"
Kr       0.00000000       0.00000000       0.00000000       0.00000000       0.00000000      -0.02758779
Kr       0.00000000       0.00000000       3.47212121       0.00000000       0.00000000       0.02758779
2
Properties=species:S:1:pos:R:3:forces:R:3 energy=-0.06314087227369475 pbc="F F F"
Kr       0.00000000       0.00000000       0.00000000       0.00000000       0.00000000      -0.03109813
Kr       0.00000000       0.00000000       3.53090909       0.00000000       0.00000000       0.03109813
2
Properties=species:S:1:pos:R:3:forces:R:3 energy=-0.06504054159088066 pbc="F F F"
Kr       0.00000000       0.00000000       0.00000000       0.00000000       0.00000000      -0.03330356
Kr       0.00000000       0.00000000       3.58969697       0.00000000       0.00000000       0.03330356
2
Properties=species:S:1:pos:R:3:forces:R:3 energy=-0.06703015095855683 pbc="F F F"
Kr       0.00000000       0.00000000       0.00000000       0.00000000       0.00000000      -0.03416378
Kr       0.00000000       0.00000000       3.64848485       0.00000000       0.00000000       0.03416378
2
Properties=species:S:1:pos:R:3:forces:R:3 energy=-0.06903281516976616 pbc="F F F"
Kr       0.00000000       0.00000000       0.00000000       0.00000000       0.00000000      -0.03377372
Kr       0.00000000       0.00000000       3.70727273       0.00000000       0.00000000       0.03377372
2
Properties=species:S:1:pos:R:3:forces:R:3 energy=-0.07098016980044519 pbc="F F F"
Kr       0.00000000       0.00000000       0.00000000       0.00000000       0.00000000      -0.03231409
Kr       0.00000000       0.00000000       3.76606061       0.00000000       0.00000000       0.03231409
2
Properties=species:S:1:pos:R:3:forces:R:3 energy=-0.07281535924621704 pbc="F F F"
Kr       0.00000000       0.00000000       0.00000000       0.00000000       0.00000000      -0.02999590
Kr       0.00000000       0.00000000       3.82484848       0.00000000       0.00000000       0.02999590
2
Properties=species:S:1:pos:R:3:forces:R:3 energy=-0.07449400635978948 pbc="F F F"
Kr       0.00000000       0.00000000       0.00000000       0.00000000       0.00000000      -0.02701492
Kr       0.00000000       0.00000000       3.88363636       0.00000000       0.00000000       0.02701492
2
Properties=species:S:1:pos:R:3:forces:R:3 energy=-0.07598172205462864 pbc="F F F"
Kr       0.00000000       0.00000000       0.00000000       0.00000000       0.00000000      -0.02352439
Kr       0.00000000       0.00000000       3.94242424       0.00000000       0.00000000       0.02352439
2
Properties=species:S:1:pos:R:3:forces:R:3 energy=-0.07725191730310828 pbc="F F F"
Kr       0.00000000       0.00000000       0.00000000       0.00000000       0.00000000      -0.01962825
Kr       0.00000000       0.00000000       4.00121212       0.00000000       0.00000000       0.01962825
2
Properties=species:S:1:pos:R:3:forces:R:3 energy=-0.07828289914446704 pbc="F F F"
Kr       0.00000000       0.00000000       0.00000000       0.00000000       0.00000000      -0.01539370
Kr       0.00000000       0.00000000       4.06000000       0.00000000       0.00000000       0.01539370
2
Properties=species:S:1:pos:R:3:forces:R:3 energy=-0.07905627603055809 pbc="F F F"
Kr       0.00000000       0.00000000       0.00000000       0.00000000       0.00000000      -0.01087553
Kr       0.00000000       0.00000000       4.11878788       0.00000000       0.00000000       0.01087553
2
Properties=species:S:1:pos:R:3:forces:R:3 energy=-0.07955736106864303 pbc="F F F"
Kr       0.00000000       0.00000000       0.00000000       0.00000000       0.00000000      -0.00614286
Kr       0.00000000       0.00000000       4.17757576       0.00000000       0.00000000       0.00614286
2
Properties=species:S:1:pos:R:3:forces:R:3 energy=-0.07977640236712549 pbc="F F F"
Kr       0.00000000       0.00000000       0.00000000       0.00000000       0.00000000      -0.00130186
Kr       0.00000000       0.00000000       4.23636364       0.00000000       0.00000000       0.00130186
2
Properties=species:S:1:pos:R:3:forces:R:3 energy=-0.07971124371577244 pbc="F F F"
Kr       0.00000000       0.00000000       0.00000000       0.00000000       0.00000000       0.00349670
Kr       0.00000000       0.00000000       4.29515152       0.00000000       0.00000000      -0.00349670
2
Properties=species:S:1:pos:R:3:forces:R:3 energy=-0.0793697896129555 pbc="F F F"
Kr       0.00000000       0.00000000       0.00000000       0.00000000       0.00000000       0.00806445
Kr       0.00000000       0.00000000       4.35393939       0.00000000       0.00000000      -0.00806445
2
Properties=species:S:1:pos:R:3:forces:R:3 energy=-0.07877159892893588 pbc="F F F"
Kr       0.00000000       0.00000000       0.00000000       0.00000000       0.00000000       0.01219638
Kr       0.00000000       0.00000000       4.41272727       0.00000000       0.00000000      -0.01219638
2
Properties=species:S:1:pos:R:3:forces:R:3 energy=-0.07794823883495065 pbc="F F F"
Kr       0.00000000       0.00000000       0.00000000       0.00000000       0.00000000       0.01569399
Kr       0.00000000       0.00000000       4.47151515       0.00000000       0.00000000      -0.01569399
2
Properties=species:S:1:pos:R:3:forces:R:3 energy=-0.07694217689657637 pbc="F F F"
Kr       0.00000000       0.00000000       0.00000000       0.00000000       0.00000000       0.01838599
Kr       0.00000000       0.00000000       4.53030303       0.00000000       0.00000000      -0.01838599
2
Properties=species:S:1:pos:R:3:forces:R:3 energy=-0.07580493027692016 pbc="F F F"
Kr       0.00000000       0.00000000       0.00000000       0.00000000       0.00000000       0.02013852
Kr       0.00000000       0.00000000       4.58909091       0.00000000       0.00000000      -0.02013852
2
Properties=species:S:1:pos:R:3:forces:R:3 energy=-0.07459462443705182 pbc="F F F"
Kr       0.00000000       0.00000000       0.00000000       0.00000000       0.00000000       0.02085982
Kr       0.00000000       0.00000000       4.64787879       0.00000000       0.00000000      -0.02085982
2
Properties=species:S:1:pos:R:3:forces:R:3 energy=-0.0733734545409061 pbc="F F F"
Kr       0.00000000       0.00000000       0.00000000       0.00000000       0.00000000       0.02050433
Kr       0.00000000       0.00000000       4.70666667       0.00000000       0.00000000      -0.02050433
2
Properties=species:S:1:pos:R:3:forces:R:3 energy=-0.07220463097823324 pbc="F F F"
Kr       0.00000000       0.00000000       0.00000000       0.00000000       0.00000000       0.01908996
Kr       0.00000000       0.00000000       4.76545455       0.00000000       0.00000000      -0.01908996
2
Properties=species:S:1:pos:R:3:forces:R:3 energy=-0.07114755214933494 pbc="F F F"
Kr       0.00000000       0.00000000       0.00000000       0.00000000       0.00000000       0.01672902
Kr       0.00000000       0.00000000       4.82424242       0.00000000       0.00000000      -0.01672902
2
Properties=species:S:1:pos:R:3:forces:R:3 energy=-0.07025157304984522 pbc="F F F"
Kr       0.00000000       0.00000000       0.00000000       0.00000000       0.00000000       0.01366627
Kr       0.00000000       0.00000000       4.88303030       0.00000000       0.00000000      -0.01366627
2
Properties=species:S:1:pos:R:3:forces:R:3 energy=-0.06954694986647407 pbc="F F F"
Kr       0.00000000       0.00000000       0.00000000       0.00000000       0.00000000       0.01029226
Kr       0.00000000       0.00000000       4.94181818       0.00000000       0.00000000      -0.01029226
2
Properties=species:S:1:pos:R:3:forces:R:3 energy=-0.0690378435278533 pbc="F F F"
Kr       0.00000000       0.00000000       0.00000000       0.00000000       0.00000000       0.00709940
Kr       0.00000000       0.00000000       5.00060606       0.00000000       0.00000000      -0.00709940
2
Properties=species:S:1:pos:R:3:forces:R:3 energy=-0.06869985281240786 pbc="F F F"
Kr       0.00000000       0.00000000       0.00000000       0.00000000       0.00000000       0.00452883
Kr       0.00000000       0.00000000       5.05939394       0.00000000       0.00000000      -0.00452883
2
Properties=species:S:1:pos:R:3:forces:R:3 energy=-0.06848984515496592 pbc="F F F"
Kr       0.00000000       0.00000000       0.00000000       0.00000000       0.00000000       0.00273274
Kr       0.00000000       0.00000000       5.11818182       0.00000000       0.00000000      -0.00273274
2
Properties=species:S:1:pos:R:3:forces:R:3 energy=-0.06836952985679713 pbc="F F F"
Kr       0.00000000       0.00000000       0.00000000       0.00000000       0.00000000       0.00138373
Kr       0.00000000       0.00000000       5.17696970       0.00000000       0.00000000      -0.00138373
2
Properties=species:S:1:pos:R:3:forces:R:3 energy=-0.0683308985465392 pbc="F F F"
Kr       0.00000000       0.00000000       0.00000000       0.00000000       0.00000000      -0.00014300
Kr       0.00000000       0.00000000       5.23575758       0.00000000       0.00000000       0.00014300
2
Properties=species:S:1:pos:R:3:forces:R:3 energy=-0.06839439615115471 pbc="F F F"
Kr       0.00000000       0.00000000       0.00000000       0.00000000       0.00000000      -0.00204198
Kr       0.00000000       0.00000000       5.29454545       0.00000000       0.00000000       0.00204198
2
Properties=species:S:1:pos:R:3:forces:R:3 energy=-0.06856388329316326 pbc="F F F"
Kr       0.00000000       0.00000000       0.00000000       0.00000000       0.00000000      -0.00357290
Kr       0.00000000       0.00000000       5.35333333       0.00000000       0.00000000       0.00357290
2
Properties=species:S:1:pos:R:3:forces:R:3 energy=-0.06879030131998437 pbc="F F F"
Kr       0.00000000       0.00000000       0.00000000       0.00000000       0.00000000      -0.00391449
Kr       0.00000000       0.00000000       5.41212121       0.00000000       0.00000000       0.00391449
2
Properties=species:S:1:pos:R:3:forces:R:3 energy=-0.06900443805051087 pbc="F F F"
Kr       0.00000000       0.00000000       0.00000000       0.00000000       0.00000000      -0.00327482
Kr       0.00000000       0.00000000       5.47090909       0.00000000       0.00000000       0.00327482
2
Properties=species:S:1:pos:R:3:forces:R:3 energy=-0.06917391503622226 pbc="F F F"
Kr       0.00000000       0.00000000       0.00000000       0.00000000       0.00000000      -0.00254484
Kr       0.00000000       0.00000000       5.52969697       0.00000000       0.00000000       0.00254484
2
Properties=species:S:1:pos:R:3:forces:R:3 energy=-0.06931352290239472 pbc="F F F"
Kr       0.00000000       0.00000000       0.00000000       0.00000000       0.00000000      -0.00228506
Kr       0.00000000       0.00000000       5.58848485       0.00000000       0.00000000       0.00228506
2
Properties=species:S:1:pos:R:3:forces:R:3 energy=-0.0694455832693811 pbc="F F F"
Kr       0.00000000       0.00000000       0.00000000       0.00000000       0.00000000      -0.00217163
Kr       0.00000000       0.00000000       5.64727273       0.00000000       0.00000000       0.00217163
2
Properties=species:S:1:pos:R:3:forces:R:3 energy=-0.06955659521003965 pbc="F F F"
Kr       0.00000000       0.00000000       0.00000000       0.00000000       0.00000000      -0.00146821
Kr       0.00000000       0.00000000       5.70606061       0.00000000       0.00000000       0.00146821
2
Properties=species:S:1:pos:R:3:forces:R:3 energy=-0.06960629245689244 pbc="F F F"
Kr       0.00000000       0.00000000       0.00000000       0.00000000       0.00000000      -0.00015892
Kr       0.00000000       0.00000000       5.76484848       0.00000000       0.00000000       0.00015892
2
Properties=species:S:1:pos:R:3:forces:R:3 energy=-0.06957751481679683 pbc="F F F"
Kr       0.00000000       0.00000000       0.00000000       0.00000000       0.00000000       0.00106804
Kr       0.00000000       0.00000000       5.82363636       0.00000000       0.00000000      -0.00106804
2
Properties=species:S:1:pos:R:3:forces:R:3 energy=-0.06949047029111091 pbc="F F F"
Kr       0.00000000       0.00000000       0.00000000       0.00000000       0.00000000       0.00179931
Kr       0.00000000       0.00000000       5.88242424       0.00000000       0.00000000      -0.00179931
2
Properties=species:S:1:pos:R:3:forces:R:3 energy=-0.06937437138232472 pbc="F F F"
Kr       0.00000000       0.00000000       0.00000000       0.00000000       0.00000000       0.00209680
Kr       0.00000000       0.00000000       5.94121212       0.00000000       0.00000000      -0.00209680
2
Properties=species:S:1:pos:R:3:forces:R:3 energy=-0.06924976731860122 pbc="F F F"
Kr       0.00000000       0.00000000       0.00000000       0.00000000       0.00000000       0.00209550
Kr       0.00000000       0.00000000       6.00000000       0.00000000       0.00000000      -0.00209550
