2
Properties=species:S:1:pos:R:3:forces:R:3 energy=51884.90554713125 pbc="F F F"
La       0.00000000       0.00000000       0.00000000       0.00000000       0.00000000 -1270500.00000000
La       0.00000000       0.00000000       0.10000000       0.00000000       0.00000000 1270500.00000000
2
Properties=species:S:1:pos:R:3:forces:R:3 energy=14856.175078381257 pbc="F F F"
La       0.00000000       0.00000000       0.00000000       0.00000000       0.00000000 -271341.93750000
La       0.00000000       0.00000000       0.15959596       0.00000000       0.00000000  271341.93750000
2
Properties=species:S:1:pos:R:3:forces:R:3 energy=5550.570097912506 pbc="F F F"
La       0.00000000       0.00000000       0.00000000       0.00000000       0.00000000  -83713.27343750
La       0.00000000       0.00000000       0.21919192       0.00000000       0.00000000   83713.27343750
2
Properties=species:S:1:pos:R:3:forces:R:3 energy=2402.365019787506 pbc="F F F"
La       0.00000000       0.00000000       0.00000000       0.00000000       0.00000000  -31595.37304688
La       0.00000000       0.00000000       0.27878788       0.00000000       0.00000000   31595.37304688
2
Properties=species:S:1:pos:R:3:forces:R:3 energy=1146.150908459381 pbc="F F F"
La       0.00000000       0.00000000       0.00000000       0.00000000       0.00000000  -13447.33691406
La       0.00000000       0.00000000       0.33838384       0.00000000       0.00000000   13447.33691406
2
Properties=species:S:1:pos:R:3:forces:R:3 energy=591.4145803407166 pbc="F F F"
La       0.00000000       0.00000000       0.00000000       0.00000000       0.00000000   -6199.81494141
La       0.00000000       0.00000000       0.39797980       0.00000000       0.00000000    6199.81494141
2
Properties=species:S:1:pos:R:3:forces:R:3 energy=328.51483058485724 pbc="F F F"
La       0.00000000       0.00000000       0.00000000       0.00000000       0.00000000   -3035.68920898
La       0.00000000       0.00000000       0.45757576       0.00000000       0.00000000    3035.68920898
2
Properties=species:S:1:pos:R:3:forces:R:3 energy=196.8599233646304 pbc="F F F"
La       0.00000000       0.00000000       0.00000000       0.00000000       0.00000000   -1561.16784668
La       0.00000000       0.00000000       0.51717172       0.00000000       0.00000000    1561.16784668
2
Properties=species:S:1:pos:R:3:forces:R:3 energy=127.87653256919621 pbc="F F F"
La       0.00000000       0.00000000       0.00000000       0.00000000       0.00000000    -835.73547363
La       0.00000000       0.00000000       0.57676768       0.00000000       0.00000000     835.73547363
2
Properties=species:S:1:pos:R:3:forces:R:3 energy=90.42083648224612 pbc="F F F"
La       0.00000000       0.00000000       0.00000000       0.00000000       0.00000000    -460.60461426
La       0.00000000       0.00000000       0.63636364       0.00000000       0.00000000     460.60461426
2
Properties=species:S:1:pos:R:3:forces:R:3 energy=69.62737948900998 pbc="F F F"
La       0.00000000       0.00000000       0.00000000       0.00000000       0.00000000    -256.97229004
La       0.00000000       0.00000000       0.69595960       0.00000000       0.00000000     256.97229004
2
Properties=species:S:1:pos:R:3:forces:R:3 energy=58.07313454457794 pbc="F F F"
La       0.00000000       0.00000000       0.00000000       0.00000000       0.00000000    -141.20454407
La       0.00000000       0.00000000       0.75555556       0.00000000       0.00000000     141.20454407
2
Properties=species:S:1:pos:R:3:forces:R:3 energy=51.86069030251446 pbc="F F F"
La       0.00000000       0.00000000       0.00000000       0.00000000       0.00000000     -73.22423553
La       0.00000000       0.00000000       0.81515152       0.00000000       0.00000000      73.22423553
2
Properties=species:S:1:pos:R:3:forces:R:3 energy=48.78108149931973 pbc="F F F"
La       0.00000000       0.00000000       0.00000000       0.00000000       0.00000000     -33.96711731
La       0.00000000       0.00000000       0.87474747       0.00000000       0.00000000      33.96711731
2
Properties=species:S:1:pos:R:3:forces:R:3 energy=47.42864558570137 pbc="F F F"
La       0.00000000       0.00000000       0.00000000       0.00000000       0.00000000     -14.08284378
La       0.00000000       0.00000000       0.93434343       0.00000000       0.00000000      14.08284378
2
Properties=species:S:1:pos:R:3:forces:R:3 energy=46.85195894198242 pbc="F F F"
La       0.00000000       0.00000000       0.00000000       0.00000000       0.00000000      -6.78522348
La       0.00000000       0.00000000       0.99393939       0.00000000       0.00000000       6.78522348
2
Properties=species:S:1:pos:R:3:forces:R:3 energy=46.503849021776155 pbc="F F F"
La       0.00000000       0.00000000       0.00000000       0.00000000       0.00000000      -5.43560791
La       0.00000000       0.00000000       1.05353535       0.00000000       0.00000000       5.43560791
2
Properties=species:S:1:pos:R:3:forces:R:3 energy=46.1647952942488 pbc="F F F"
La       0.00000000       0.00000000       0.00000000       0.00000000       0.00000000      -6.20546007
La       0.00000000       0.00000000       1.11313131       0.00000000       0.00000000       6.20546007
2
Properties=species:S:1:pos:R:3:forces:R:3 energy=45.72509471444243 pbc="F F F"
La       0.00000000       0.00000000       0.00000000       0.00000000       0.00000000      -8.97444153
La       0.00000000       0.00000000       1.17272727       0.00000000       0.00000000       8.97444153
2
Properties=species:S:1:pos:R:3:forces:R:3 energy=45.03510436969934 pbc="F F F"
La       0.00000000       0.00000000       0.00000000       0.00000000       0.00000000     -14.73740292
La       0.00000000       0.00000000       1.23232323       0.00000000       0.00000000      14.73740292
2
Properties=species:S:1:pos:R:3:forces:R:3 energy=43.90085075043798 pbc="F F F"
La       0.00000000       0.00000000       0.00000000       0.00000000       0.00000000     -23.87142754
La       0.00000000       0.00000000       1.29191919       0.00000000       0.00000000      23.87142754
2
Properties=species:S:1:pos:R:3:forces:R:3 energy=42.13503607996294 pbc="F F F"
La       0.00000000       0.00000000       0.00000000       0.00000000       0.00000000     -35.72632599
La       0.00000000       0.00000000       1.35151515       0.00000000       0.00000000      35.72632599
2
Properties=species:S:1:pos:R:3:forces:R:3 energy=39.62174319047754 pbc="F F F"
La       0.00000000       0.00000000       0.00000000       0.00000000       0.00000000     -48.62507248
La       0.00000000       0.00000000       1.41111111       0.00000000       0.00000000      48.62507248
2
Properties=species:S:1:pos:R:3:forces:R:3 energy=36.35442231013314 pbc="F F F"
La       0.00000000       0.00000000       0.00000000       0.00000000       0.00000000     -60.79236984
La       0.00000000       0.00000000       1.47070707       0.00000000       0.00000000      60.79236984
2
Properties=species:S:1:pos:R:3:forces:R:3 energy=32.41185081551861 pbc="F F F"
La       0.00000000       0.00000000       0.00000000       0.00000000       0.00000000     -71.15390015
La       0.00000000       0.00000000       1.53030303       0.00000000       0.00000000      71.15390015
2
Properties=species:S:1:pos:R:3:forces:R:3 energy=27.925876157917834 pbc="F F F"
La       0.00000000       0.00000000       0.00000000       0.00000000       0.00000000     -78.85350800
La       0.00000000       0.00000000       1.58989899       0.00000000       0.00000000      78.85350800
2
Properties=species:S:1:pos:R:3:forces:R:3 energy=23.094465955326704 pbc="F F F"
La       0.00000000       0.00000000       0.00000000       0.00000000       0.00000000     -82.43369293
La       0.00000000       0.00000000       1.64949495       0.00000000       0.00000000      82.43369293
2
Properties=species:S:1:pos:R:3:forces:R:3 energy=18.22188436504776 pbc="F F F"
La       0.00000000       0.00000000       0.00000000       0.00000000       0.00000000     -79.94673157
La       0.00000000       0.00000000       1.70909091       0.00000000       0.00000000      79.94673157
2
Properties=species:S:1:pos:R:3:forces:R:3 energy=13.698555275841832 pbc="F F F"
La       0.00000000       0.00000000       0.00000000       0.00000000       0.00000000     -70.89252472
La       0.00000000       0.00000000       1.76868687       0.00000000       0.00000000      70.89252472
2
Properties=species:S:1:pos:R:3:forces:R:3 energy=9.847138287907553 pbc="F F F"
La       0.00000000       0.00000000       0.00000000       0.00000000       0.00000000     -58.12110138
La       0.00000000       0.00000000       1.82828283       0.00000000       0.00000000      58.12110138
2
Properties=species:S:1:pos:R:3:forces:R:3 energy=6.755673434666545 pbc="F F F"
La       0.00000000       0.00000000       0.00000000       0.00000000       0.00000000     -46.03211975
La       0.00000000       0.00000000       1.88787879       0.00000000       0.00000000      46.03211975
2
Properties=species:S:1:pos:R:3:forces:R:3 energy=4.299350166190436 pbc="F F F"
La       0.00000000       0.00000000       0.00000000       0.00000000       0.00000000     -36.92016983
La       0.00000000       0.00000000       1.94747475       0.00000000       0.00000000      36.92016983
2
Properties=species:S:1:pos:R:3:forces:R:3 energy=2.3033157928173544 pbc="F F F"
La       0.00000000       0.00000000       0.00000000       0.00000000       0.00000000     -30.39282417
La       0.00000000       0.00000000       2.00707071       0.00000000       0.00000000      30.39282417
2
Properties=species:S:1:pos:R:3:forces:R:3 energy=0.6494140245778032 pbc="F F F"
La       0.00000000       0.00000000       0.00000000       0.00000000       0.00000000     -25.26190567
La       0.00000000       0.00000000       2.06666667       0.00000000       0.00000000      25.26190567
2
Properties=species:S:1:pos:R:3:forces:R:3 energy=-0.7202097923488961 pbc="F F F"
La       0.00000000       0.00000000       0.00000000       0.00000000       0.00000000     -20.77959061
La       0.00000000       0.00000000       2.12626263       0.00000000       0.00000000      20.77959061
2
Properties=species:S:1:pos:R:3:forces:R:3 energy=-1.8357824658715385 pbc="F F F"
La       0.00000000       0.00000000       0.00000000       0.00000000       0.00000000     -16.72976494
La       0.00000000       0.00000000       2.18585859       0.00000000       0.00000000      16.72976494
2
Properties=species:S:1:pos:R:3:forces:R:3 energy=-2.723334795297838 pbc="F F F"
La       0.00000000       0.00000000       0.00000000       0.00000000       0.00000000     -13.13587856
La       0.00000000       0.00000000       2.24545455       0.00000000       0.00000000      13.13587856
2
Properties=species:S:1:pos:R:3:forces:R:3 energy=-3.4111259669366216 pbc="F F F"
La       0.00000000       0.00000000       0.00000000       0.00000000       0.00000000     -10.02588558
La       0.00000000       0.00000000       2.30505051       0.00000000       0.00000000      10.02588558
2
Properties=species:S:1:pos:R:3:forces:R:3 energy=-3.927658644319083 pbc="F F F"
La       0.00000000       0.00000000       0.00000000       0.00000000       0.00000000      -7.38617420
La       0.00000000       0.00000000       2.36464646       0.00000000       0.00000000       7.38617420
2
Properties=species:S:1:pos:R:3:forces:R:3 energy=-4.300839624758492 pbc="F F F"
La       0.00000000       0.00000000       0.00000000       0.00000000       0.00000000      -5.21654606
La       0.00000000       0.00000000       2.42424242       0.00000000       0.00000000       5.21654606
2
Properties=species:S:1:pos:R:3:forces:R:3 energy=-4.558649296881589 pbc="F F F"
La       0.00000000       0.00000000       0.00000000       0.00000000       0.00000000      -3.50862122
La       0.00000000       0.00000000       2.48383838       0.00000000       0.00000000       3.50862122
2
Properties=species:S:1:pos:R:3:forces:R:3 energy=-4.726974371395039 pbc="F F F"
La       0.00000000       0.00000000       0.00000000       0.00000000       0.00000000      -2.19925427
La       0.00000000       0.00000000       2.54343434       0.00000000       0.00000000       2.19925427
2
Properties=species:S:1:pos:R:3:forces:R:3 energy=-4.8269082295004075 pbc="F F F"
La       0.00000000       0.00000000       0.00000000       0.00000000       0.00000000      -1.19900119
La       0.00000000       0.00000000       2.60303030       0.00000000       0.00000000       1.19900119
2
Properties=species:S:1:pos:R:3:forces:R:3 energy=-4.874544632138592 pbc="F F F"
La       0.00000000       0.00000000       0.00000000       0.00000000       0.00000000      -0.43420291
La       0.00000000       0.00000000       2.66262626       0.00000000       0.00000000       0.43420291
2
Properties=species:S:1:pos:R:3:forces:R:3 energy=-4.882366957371772 pbc="F F F"
La       0.00000000       0.00000000       0.00000000       0.00000000       0.00000000       0.14353836
La       0.00000000       0.00000000       2.72222222       0.00000000       0.00000000      -0.14353836
2
Properties=species:S:1:pos:R:3:forces:R:3 energy=-4.8604924569346535 pbc="F F F"
La       0.00000000       0.00000000       0.00000000       0.00000000       0.00000000       0.56731200
La       0.00000000       0.00000000       2.78181818       0.00000000       0.00000000      -0.56731200
2
Properties=species:S:1:pos:R:3:forces:R:3 energy=-4.817233232144418 pbc="F F F"
La       0.00000000       0.00000000       0.00000000       0.00000000       0.00000000       0.86607194
La       0.00000000       0.00000000       2.84141414       0.00000000       0.00000000      -0.86607194
2
Properties=species:S:1:pos:R:3:forces:R:3 energy=-4.759159436167029 pbc="F F F"
La       0.00000000       0.00000000       0.00000000       0.00000000       0.00000000       1.06942987
La       0.00000000       0.00000000       2.90101010       0.00000000       0.00000000      -1.06942987
2
Properties=species:S:1:pos:R:3:forces:R:3 energy=-4.691076477540621 pbc="F F F"
La       0.00000000       0.00000000       0.00000000       0.00000000       0.00000000       1.20665014
La       0.00000000       0.00000000       2.96060606       0.00000000       0.00000000      -1.20665014
2
Properties=species:S:1:pos:R:3:forces:R:3 energy=-4.616138448734526 pbc="F F F"
La       0.00000000       0.00000000       0.00000000       0.00000000       0.00000000       1.30328548
La       0.00000000       0.00000000       3.02020202       0.00000000       0.00000000      -1.30328548
2
Properties=species:S:1:pos:R:3:forces:R:3 energy=-4.536158039968014 pbc="F F F"
La       0.00000000       0.00000000       0.00000000       0.00000000       0.00000000       1.37830746
La       0.00000000       0.00000000       3.07979798       0.00000000       0.00000000      -1.37830746
2
Properties=species:S:1:pos:R:3:forces:R:3 energy=-4.4520599873493065 pbc="F F F"
La       0.00000000       0.00000000       0.00000000       0.00000000       0.00000000       1.44272351
La       0.00000000       0.00000000       3.13939394       0.00000000       0.00000000      -1.44272351
2
Properties=species:S:1:pos:R:3:forces:R:3 energy=-4.3643358421562715 pbc="F F F"
La       0.00000000       0.00000000       0.00000000       0.00000000       0.00000000       1.50000882
La       0.00000000       0.00000000       3.19898990       0.00000000       0.00000000      -1.50000882
2
Properties=species:S:1:pos:R:3:forces:R:3 energy=-4.27344725904713 pbc="F F F"
La       0.00000000       0.00000000       0.00000000       0.00000000       0.00000000       1.54840195
La       0.00000000       0.00000000       3.25858586       0.00000000       0.00000000      -1.54840195
2
Properties=species:S:1:pos:R:3:forces:R:3 energy=-4.180028150697395 pbc="F F F"
La       0.00000000       0.00000000       0.00000000       0.00000000       0.00000000       1.58429039
La       0.00000000       0.00000000       3.31818182       0.00000000       0.00000000      -1.58429039
2
Properties=species:S:1:pos:R:3:forces:R:3 energy=-4.084913775890956 pbc="F F F"
La       0.00000000       0.00000000       0.00000000       0.00000000       0.00000000       1.60508108
La       0.00000000       0.00000000       3.37777778       0.00000000       0.00000000      -1.60508108
2
Properties=species:S:1:pos:R:3:forces:R:3 energy=-3.9890232261996643 pbc="F F F"
La       0.00000000       0.00000000       0.00000000       0.00000000       0.00000000       1.61042035
La       0.00000000       0.00000000       3.43737374       0.00000000       0.00000000      -1.61042035
2
Properties=species:S:1:pos:R:3:forces:R:3 energy=-3.89323843074683 pbc="F F F"
La       0.00000000       0.00000000       0.00000000       0.00000000       0.00000000       1.60199463
La       0.00000000       0.00000000       3.49696970       0.00000000       0.00000000      -1.60199463
2
Properties=species:S:1:pos:R:3:forces:R:3 energy=-3.7982942082201547 pbc="F F F"
La       0.00000000       0.00000000       0.00000000       0.00000000       0.00000000       1.58273244
La       0.00000000       0.00000000       3.55656566       0.00000000       0.00000000      -1.58273244
2
Properties=species:S:1:pos:R:3:forces:R:3 energy=-3.7047355261719264 pbc="F F F"
La       0.00000000       0.00000000       0.00000000       0.00000000       0.00000000       1.55614257
La       0.00000000       0.00000000       3.61616162       0.00000000       0.00000000      -1.55614257
2
Properties=species:S:1:pos:R:3:forces:R:3 energy=-3.612882420876252 pbc="F F F"
La       0.00000000       0.00000000       0.00000000       0.00000000       0.00000000       1.52620339
La       0.00000000       0.00000000       3.67575758       0.00000000       0.00000000      -1.52620339
2
Properties=species:S:1:pos:R:3:forces:R:3 energy=-3.522800034716058 pbc="F F F"
La       0.00000000       0.00000000       0.00000000       0.00000000       0.00000000       1.49751401
La       0.00000000       0.00000000       3.73535354       0.00000000       0.00000000      -1.49751401
2
Properties=species:S:1:pos:R:3:forces:R:3 energy=-3.4342713179267217 pbc="F F F"
La       0.00000000       0.00000000       0.00000000       0.00000000       0.00000000       1.47474563
La       0.00000000       0.00000000       3.79494949       0.00000000       0.00000000      -1.47474563
2
Properties=species:S:1:pos:R:3:forces:R:3 energy=-3.3468495464598487 pbc="F F F"
La       0.00000000       0.00000000       0.00000000       0.00000000       0.00000000       1.46046543
La       0.00000000       0.00000000       3.85454545       0.00000000       0.00000000      -1.46046543
2
Properties=species:S:1:pos:R:3:forces:R:3 energy=-3.2600764643420455 pbc="F F F"
La       0.00000000       0.00000000       0.00000000       0.00000000       0.00000000       1.45202172
La       0.00000000       0.00000000       3.91414141       0.00000000       0.00000000      -1.45202172
2
Properties=species:S:1:pos:R:3:forces:R:3 energy=-3.173827693782 pbc="F F F"
La       0.00000000       0.00000000       0.00000000       0.00000000       0.00000000       1.44115734
La       0.00000000       0.00000000       3.97373737       0.00000000       0.00000000      -1.44115734
2
Properties=species:S:1:pos:R:3:forces:R:3 energy=-3.088524555706631 pbc="F F F"
La       0.00000000       0.00000000       0.00000000       0.00000000       0.00000000       1.41928422
La       0.00000000       0.00000000       4.03333333       0.00000000       0.00000000      -1.41928422
2
Properties=species:S:1:pos:R:3:forces:R:3 energy=-3.004939649216663 pbc="F F F"
La       0.00000000       0.00000000       0.00000000       0.00000000       0.00000000       1.38356674
La       0.00000000       0.00000000       4.09292929       0.00000000       0.00000000      -1.38356674
2
Properties=species:S:1:pos:R:3:forces:R:3 energy=-2.923820294220027 pbc="F F F"
La       0.00000000       0.00000000       0.00000000       0.00000000       0.00000000       1.33750331
La       0.00000000       0.00000000       4.15252525       0.00000000       0.00000000      -1.33750331
2
Properties=species:S:1:pos:R:3:forces:R:3 energy=-2.8456094184401053 pbc="F F F"
La       0.00000000       0.00000000       0.00000000       0.00000000       0.00000000       1.28696990
La       0.00000000       0.00000000       4.21212121       0.00000000       0.00000000      -1.28696990
2
Properties=species:S:1:pos:R:3:forces:R:3 energy=-2.770419773352666 pbc="F F F"
La       0.00000000       0.00000000       0.00000000       0.00000000       0.00000000       1.23659039
La       0.00000000       0.00000000       4.27171717       0.00000000       0.00000000      -1.23659039
2
Properties=species:S:1:pos:R:3:forces:R:3 energy=-2.6981703791161684 pbc="F F F"
La       0.00000000       0.00000000       0.00000000       0.00000000       0.00000000       1.18853700
La       0.00000000       0.00000000       4.33131313       0.00000000       0.00000000      -1.18853700
2
Properties=species:S:1:pos:R:3:forces:R:3 energy=-2.6287023449380063 pbc="F F F"
La       0.00000000       0.00000000       0.00000000       0.00000000       0.00000000       1.14317083
La       0.00000000       0.00000000       4.39090909       0.00000000       0.00000000      -1.14317083
2
Properties=species:S:1:pos:R:3:forces:R:3 energy=-2.561860225715319 pbc="F F F"
La       0.00000000       0.00000000       0.00000000       0.00000000       0.00000000       1.10043025
La       0.00000000       0.00000000       4.45050505       0.00000000       0.00000000      -1.10043025
2
Properties=species:S:1:pos:R:3:forces:R:3 energy=-2.4974748626833203 pbc="F F F"
La       0.00000000       0.00000000       0.00000000       0.00000000       0.00000000       1.06102252
La       0.00000000       0.00000000       4.51010101       0.00000000       0.00000000      -1.06102252
2
Properties=species:S:1:pos:R:3:forces:R:3 energy=-2.4352894090205304 pbc="F F F"
La       0.00000000       0.00000000       0.00000000       0.00000000       0.00000000       1.02692795
La       0.00000000       0.00000000       4.56969697       0.00000000       0.00000000      -1.02692795
2
Properties=species:S:1:pos:R:3:forces:R:3 energy=-2.3749071488826123 pbc="F F F"
La       0.00000000       0.00000000       0.00000000       0.00000000       0.00000000       1.00110996
La       0.00000000       0.00000000       4.62929293       0.00000000       0.00000000      -1.00110996
2
Properties=species:S:1:pos:R:3:forces:R:3 energy=-2.3157427599860636 pbc="F F F"
La       0.00000000       0.00000000       0.00000000       0.00000000       0.00000000       0.98651803
La       0.00000000       0.00000000       4.68888889       0.00000000       0.00000000      -0.98651803
2
Properties=species:S:1:pos:R:3:forces:R:3 energy=-2.257065497385419 pbc="F F F"
La       0.00000000       0.00000000       0.00000000       0.00000000       0.00000000       0.98476177
La       0.00000000       0.00000000       4.74848485       0.00000000       0.00000000      -0.98476177
2
Properties=species:S:1:pos:R:3:forces:R:3 energy=-2.1981281802604467 pbc="F F F"
La       0.00000000       0.00000000       0.00000000       0.00000000       0.00000000       0.99492753
La       0.00000000       0.00000000       4.80808081       0.00000000       0.00000000      -0.99492753
2
Properties=species:S:1:pos:R:3:forces:R:3 energy=-2.138321651477446 pbc="F F F"
La       0.00000000       0.00000000       0.00000000       0.00000000       0.00000000       1.01286793
La       0.00000000       0.00000000       4.86767677       0.00000000       0.00000000      -1.01286793
2
Properties=species:S:1:pos:R:3:forces:R:3 energy=-2.0773881495462554 pbc="F F F"
La       0.00000000       0.00000000       0.00000000       0.00000000       0.00000000       1.03136301
La       0.00000000       0.00000000       4.92727273       0.00000000       0.00000000      -1.03136301
2
Properties=species:S:1:pos:R:3:forces:R:3 energy=-2.015552966361069 pbc="F F F"
La       0.00000000       0.00000000       0.00000000       0.00000000       0.00000000       1.04176354
La       0.00000000       0.00000000       4.98686869       0.00000000       0.00000000      -1.04176354
2
Properties=species:S:1:pos:R:3:forces:R:3 energy=-1.9535102371203568 pbc="F F F"
La       0.00000000       0.00000000       0.00000000       0.00000000       0.00000000       1.03815329
La       0.00000000       0.00000000       5.04646465       0.00000000       0.00000000      -1.03815329
2
Properties=species:S:1:pos:R:3:forces:R:3 energy=-1.8920303893040642 pbc="F F F"
La       0.00000000       0.00000000       0.00000000       0.00000000       0.00000000       1.02441752
La       0.00000000       0.00000000       5.10606061       0.00000000       0.00000000      -1.02441752
2
Properties=species:S:1:pos:R:3:forces:R:3 energy=-1.8312456413738645 pbc="F F F"
La       0.00000000       0.00000000       0.00000000       0.00000000       0.00000000       1.01854825
La       0.00000000       0.00000000       5.16565657       0.00000000       0.00000000      -1.01854825
2
Properties=species:S:1:pos:R:3:forces:R:3 energy=-1.770030666164431 pbc="F F F"
La       0.00000000       0.00000000       0.00000000       0.00000000       0.00000000       1.04153967
La       0.00000000       0.00000000       5.22525253       0.00000000       0.00000000      -1.04153967
2
Properties=species:S:1:pos:R:3:forces:R:3 energy=-1.7066171452813417 pbc="F F F"
La       0.00000000       0.00000000       0.00000000       0.00000000       0.00000000       1.08767998
La       0.00000000       0.00000000       5.28484848       0.00000000       0.00000000      -1.08767998
2
Properties=species:S:1:pos:R:3:forces:R:3 energy=-1.640825511553336 pbc="F F F"
La       0.00000000       0.00000000       0.00000000       0.00000000       0.00000000       1.11175990
La       0.00000000       0.00000000       5.34444444       0.00000000       0.00000000      -1.11175990
2
Properties=species:S:1:pos:R:3:forces:R:3 energy=-1.5754255975276026 pbc="F F F"
La       0.00000000       0.00000000       0.00000000       0.00000000       0.00000000       1.07158124
La       0.00000000       0.00000000       5.40404040       0.00000000       0.00000000      -1.07158124
2
Properties=species:S:1:pos:R:3:forces:R:3 energy=-1.5139653943158173 pbc="F F F"
La       0.00000000       0.00000000       0.00000000       0.00000000       0.00000000       0.98988765
La       0.00000000       0.00000000       5.46363636       0.00000000       0.00000000      -0.98988765
2
Properties=species:S:1:pos:R:3:forces:R:3 energy=-1.4564261862683734 pbc="F F F"
La       0.00000000       0.00000000       0.00000000       0.00000000       0.00000000       0.96045357
La       0.00000000       0.00000000       5.52323232       0.00000000       0.00000000      -0.96045357
2
Properties=species:S:1:pos:R:3:forces:R:3 energy=-1.3964523528325126 pbc="F F F"
La       0.00000000       0.00000000       0.00000000       0.00000000       0.00000000       1.08108294
La       0.00000000       0.00000000       5.58282828       0.00000000       0.00000000      -1.08108294
2
Properties=species:S:1:pos:R:3:forces:R:3 energy=-1.3246686221236839 pbc="F F F"
La       0.00000000       0.00000000       0.00000000       0.00000000       0.00000000       1.34181559
La       0.00000000       0.00000000       5.64242424       0.00000000       0.00000000      -1.34181559
2
Properties=species:S:1:pos:R:3:forces:R:3 energy=-1.237083084228776 pbc="F F F"
La       0.00000000       0.00000000       0.00000000       0.00000000       0.00000000       1.56897378
La       0.00000000       0.00000000       5.70202020       0.00000000       0.00000000      -1.56897378
2
Properties=species:S:1:pos:R:3:forces:R:3 energy=-1.1430884173504559 pbc="F F F"
La       0.00000000       0.00000000       0.00000000       0.00000000       0.00000000       1.53286576
La       0.00000000       0.00000000       5.76161616       0.00000000       0.00000000      -1.53286576
2
Properties=species:S:1:pos:R:3:forces:R:3 energy=-1.061106164348611 pbc="F F F"
La       0.00000000       0.00000000       0.00000000       0.00000000       0.00000000       1.16906929
La       0.00000000       0.00000000       5.82121212       0.00000000       0.00000000      -1.16906929
2
Properties=species:S:1:pos:R:3:forces:R:3 energy=-1.0072196616478601 pbc="F F F"
La       0.00000000       0.00000000       0.00000000       0.00000000       0.00000000       0.64067203
La       0.00000000       0.00000000       5.88080808       0.00000000       0.00000000      -0.64067203
2
Properties=species:S:1:pos:R:3:forces:R:3 energy=-0.9827660021184373 pbc="F F F"
La       0.00000000       0.00000000       0.00000000       0.00000000       0.00000000       0.20493990
La       0.00000000       0.00000000       5.94040404       0.00000000       0.00000000      -0.20493990
2
Properties=species:S:1:pos:R:3:forces:R:3 energy=-0.9771897102310176 pbc="F F F"
La       0.00000000       0.00000000       0.00000000       0.00000000       0.00000000       0.03887901
La       0.00000000       0.00000000       6.00000000       0.00000000       0.00000000      -0.03887901
