2
Properties=species:S:1:pos:R:3:forces:R:3 energy=121.25608835992853 pbc="F F F"
Li       0.00000000       0.00000000       0.00000000       0.00000000       0.00000000   -1432.57202148
Li       0.00000000       0.00000000       0.18000000       0.00000000       0.00000000    1432.57202148
2
Properties=species:S:1:pos:R:3:forces:R:3 energy=64.7595978814129 pbc="F F F"
Li       0.00000000       0.00000000       0.00000000       0.00000000       0.00000000    -625.73583984
Li       0.00000000       0.00000000       0.23878788       0.00000000       0.00000000     625.73583984
2
Properties=species:S:1:pos:R:3:forces:R:3 energy=38.503074749088675 pbc="F F F"
Li       0.00000000       0.00000000       0.00000000       0.00000000       0.00000000    -311.56042480
Li       0.00000000       0.00000000       0.29757576       0.00000000       0.00000000     311.56042480
2
Properties=species:S:1:pos:R:3:forces:R:3 energy=24.867357358704815 pbc="F F F"
Li       0.00000000       0.00000000       0.00000000       0.00000000       0.00000000    -169.53529358
Li       0.00000000       0.00000000       0.35636364       0.00000000       0.00000000     169.53529358
2
Properties=species:S:1:pos:R:3:forces:R:3 energy=17.216959109062017 pbc="F F F"
Li       0.00000000       0.00000000       0.00000000       0.00000000       0.00000000     -98.33311462
Li       0.00000000       0.00000000       0.41515152       0.00000000       0.00000000      98.33311462
2
Properties=species:S:1:pos:R:3:forces:R:3 energy=12.681613085792609 pbc="F F F"
Li       0.00000000       0.00000000       0.00000000       0.00000000       0.00000000     -59.62958145
Li       0.00000000       0.00000000       0.47393939       0.00000000       0.00000000      59.62958145
2
Properties=species:S:1:pos:R:3:forces:R:3 energy=9.894703996654254 pbc="F F F"
Li       0.00000000       0.00000000       0.00000000       0.00000000       0.00000000     -37.07343292
Li       0.00000000       0.00000000       0.53272727       0.00000000       0.00000000      37.07343292
2
Properties=species:S:1:pos:R:3:forces:R:3 energy=8.15785042244849 pbc="F F F"
Li       0.00000000       0.00000000       0.00000000       0.00000000       0.00000000     -23.05321121
Li       0.00000000       0.00000000       0.59151515       0.00000000       0.00000000      23.05321121
2
Properties=species:S:1:pos:R:3:forces:R:3 energy=7.088929377625638 pbc="F F F"
Li       0.00000000       0.00000000       0.00000000       0.00000000       0.00000000     -13.95570564
Li       0.00000000       0.00000000       0.65030303       0.00000000       0.00000000      13.95570564
2
Properties=species:S:1:pos:R:3:forces:R:3 energy=6.454309734488135 pbc="F F F"
Li       0.00000000       0.00000000       0.00000000       0.00000000       0.00000000      -8.08321190
Li       0.00000000       0.00000000       0.70909091       0.00000000       0.00000000       8.08321190
2
Properties=species:S:1:pos:R:3:forces:R:3 energy=6.091320413367086 pbc="F F F"
Li       0.00000000       0.00000000       0.00000000       0.00000000       0.00000000      -4.64184093
Li       0.00000000       0.00000000       0.76787879       0.00000000       0.00000000       4.64184093
2
Properties=species:S:1:pos:R:3:forces:R:3 energy=5.865622095937124 pbc="F F F"
Li       0.00000000       0.00000000       0.00000000       0.00000000       0.00000000      -3.38659906
Li       0.00000000       0.00000000       0.82666667       0.00000000       0.00000000       3.38659906
2
Properties=species:S:1:pos:R:3:forces:R:3 energy=5.65610865343907 pbc="F F F"
Li       0.00000000       0.00000000       0.00000000       0.00000000       0.00000000      -4.00455809
Li       0.00000000       0.00000000       0.88545455       0.00000000       0.00000000       4.00455809
2
Properties=species:S:1:pos:R:3:forces:R:3 energy=5.37199793935251 pbc="F F F"
Li       0.00000000       0.00000000       0.00000000       0.00000000       0.00000000      -5.77908468
Li       0.00000000       0.00000000       0.94424242       0.00000000       0.00000000       5.77908468
2
Properties=species:S:1:pos:R:3:forces:R:3 energy=4.971791324314408 pbc="F F F"
Li       0.00000000       0.00000000       0.00000000       0.00000000       0.00000000      -7.80241060
Li       0.00000000       0.00000000       1.00303030       0.00000000       0.00000000       7.80241060
2
Properties=species:S:1:pos:R:3:forces:R:3 energy=4.46656624085738 pbc="F F F"
Li       0.00000000       0.00000000       0.00000000       0.00000000       0.00000000      -9.22651863
Li       0.00000000       0.00000000       1.06181818       0.00000000       0.00000000       9.22651863
2
Properties=species:S:1:pos:R:3:forces:R:3 energy=3.9088351374659696 pbc="F F F"
Li       0.00000000       0.00000000       0.00000000       0.00000000       0.00000000      -9.56624317
Li       0.00000000       0.00000000       1.12060606       0.00000000       0.00000000       9.56624317
2
Properties=species:S:1:pos:R:3:forces:R:3 energy=3.3581249819761134 pbc="F F F"
Li       0.00000000       0.00000000       0.00000000       0.00000000       0.00000000      -9.08085060
Li       0.00000000       0.00000000       1.17939394       0.00000000       0.00000000       9.08085060
2
Properties=species:S:1:pos:R:3:forces:R:3 energy=2.847133749023404 pbc="F F F"
Li       0.00000000       0.00000000       0.00000000       0.00000000       0.00000000      -8.27716541
Li       0.00000000       0.00000000       1.23818182       0.00000000       0.00000000       8.27716541
2
Properties=species:S:1:pos:R:3:forces:R:3 energy=2.3864706518971466 pbc="F F F"
Li       0.00000000       0.00000000       0.00000000       0.00000000       0.00000000      -7.39227581
Li       0.00000000       0.00000000       1.29696970       0.00000000       0.00000000       7.39227581
2
Properties=species:S:1:pos:R:3:forces:R:3 energy=1.9772162843772934 pbc="F F F"
Li       0.00000000       0.00000000       0.00000000       0.00000000       0.00000000      -6.54594803
Li       0.00000000       0.00000000       1.35575758       0.00000000       0.00000000       6.54594803
2
Properties=species:S:1:pos:R:3:forces:R:3 energy=1.6142912289190174 pbc="F F F"
Li       0.00000000       0.00000000       0.00000000       0.00000000       0.00000000      -5.82627535
Li       0.00000000       0.00000000       1.41454545       0.00000000       0.00000000       5.82627535
2
Properties=species:S:1:pos:R:3:forces:R:3 energy=1.2892360220367676 pbc="F F F"
Li       0.00000000       0.00000000       0.00000000       0.00000000       0.00000000      -5.25540257
Li       0.00000000       0.00000000       1.47333333       0.00000000       0.00000000       5.25540257
2
Properties=species:S:1:pos:R:3:forces:R:3 energy=0.99399509398928 pbc="F F F"
Li       0.00000000       0.00000000       0.00000000       0.00000000       0.00000000      -4.80641842
Li       0.00000000       0.00000000       1.53212121       0.00000000       0.00000000       4.80641842
2
Properties=species:S:1:pos:R:3:forces:R:3 energy=0.72235820215938 pbc="F F F"
Li       0.00000000       0.00000000       0.00000000       0.00000000       0.00000000      -4.44730568
Li       0.00000000       0.00000000       1.59090909       0.00000000       0.00000000       4.44730568
2
Properties=species:S:1:pos:R:3:forces:R:3 energy=0.46995123293175434 pbc="F F F"
Li       0.00000000       0.00000000       0.00000000       0.00000000       0.00000000      -4.14687300
Li       0.00000000       0.00000000       1.64969697       0.00000000       0.00000000       4.14687300
2
Properties=species:S:1:pos:R:3:forces:R:3 energy=0.2342177981129151 pbc="F F F"
Li       0.00000000       0.00000000       0.00000000       0.00000000       0.00000000      -3.87566495
Li       0.00000000       0.00000000       1.70848485       0.00000000       0.00000000       3.87566495
2
Properties=species:S:1:pos:R:3:forces:R:3 energy=0.014140818467631738 pbc="F F F"
Li       0.00000000       0.00000000       0.00000000       0.00000000       0.00000000      -3.61121988
Li       0.00000000       0.00000000       1.76727273       0.00000000       0.00000000       3.61121988
2
Properties=species:S:1:pos:R:3:forces:R:3 energy=-0.19023534543317816 pbc="F F F"
Li       0.00000000       0.00000000       0.00000000       0.00000000       0.00000000      -3.33991170
Li       0.00000000       0.00000000       1.82606061       0.00000000       0.00000000       3.33991170
2
Properties=species:S:1:pos:R:3:forces:R:3 energy=-0.37827464246164494 pbc="F F F"
Li       0.00000000       0.00000000       0.00000000       0.00000000       0.00000000      -3.05463219
Li       0.00000000       0.00000000       1.88484848       0.00000000       0.00000000       3.05463219
2
Properties=species:S:1:pos:R:3:forces:R:3 energy=-0.5490710593824225 pbc="F F F"
Li       0.00000000       0.00000000       0.00000000       0.00000000       0.00000000      -2.75351334
Li       0.00000000       0.00000000       1.94363636       0.00000000       0.00000000       2.75351334
2
Properties=species:S:1:pos:R:3:forces:R:3 energy=-0.7018034853169022 pbc="F F F"
Li       0.00000000       0.00000000       0.00000000       0.00000000       0.00000000      -2.44150949
Li       0.00000000       0.00000000       2.00242424       0.00000000       0.00000000       2.44150949
2
Properties=species:S:1:pos:R:3:forces:R:3 energy=-0.8361403974789152 pbc="F F F"
Li       0.00000000       0.00000000       0.00000000       0.00000000       0.00000000      -2.12990904
Li       0.00000000       0.00000000       2.06121212       0.00000000       0.00000000       2.12990904
2
Properties=species:S:1:pos:R:3:forces:R:3 energy=-0.9524862771556646 pbc="F F F"
Li       0.00000000       0.00000000       0.00000000       0.00000000       0.00000000      -1.83130729
Li       0.00000000       0.00000000       2.12000000       0.00000000       0.00000000       1.83130729
2
Properties=species:S:1:pos:R:3:forces:R:3 energy=-1.0518740033170375 pbc="F F F"
Li       0.00000000       0.00000000       0.00000000       0.00000000       0.00000000      -1.55371821
Li       0.00000000       0.00000000       2.17878788       0.00000000       0.00000000       1.55371821
2
Properties=species:S:1:pos:R:3:forces:R:3 energy=-1.1356114736837952 pbc="F F F"
Li       0.00000000       0.00000000       0.00000000       0.00000000       0.00000000      -1.29871094
Li       0.00000000       0.00000000       2.23757576       0.00000000       0.00000000       1.29871094
2
Properties=species:S:1:pos:R:3:forces:R:3 energy=-1.2049697549780356 pbc="F F F"
Li       0.00000000       0.00000000       0.00000000       0.00000000       0.00000000      -1.06404662
Li       0.00000000       0.00000000       2.29636364       0.00000000       0.00000000       1.06404662
2
Properties=species:S:1:pos:R:3:forces:R:3 energy=-1.2610712764489664 pbc="F F F"
Li       0.00000000       0.00000000       0.00000000       0.00000000       0.00000000      -0.84754711
Li       0.00000000       0.00000000       2.35515152       0.00000000       0.00000000       0.84754711
2
Properties=species:S:1:pos:R:3:forces:R:3 energy=-1.3049749804877209 pbc="F F F"
Li       0.00000000       0.00000000       0.00000000       0.00000000       0.00000000      -0.64918411
Li       0.00000000       0.00000000       2.41393939       0.00000000       0.00000000       0.64918411
2
Properties=species:S:1:pos:R:3:forces:R:3 energy=-1.3377923222736732 pbc="F F F"
Li       0.00000000       0.00000000       0.00000000       0.00000000       0.00000000      -0.47082773
Li       0.00000000       0.00000000       2.47272727       0.00000000       0.00000000       0.47082773
2
Properties=species:S:1:pos:R:3:forces:R:3 energy=-1.3607704998734516 pbc="F F F"
Li       0.00000000       0.00000000       0.00000000       0.00000000       0.00000000      -0.31476977
Li       0.00000000       0.00000000       2.53151515       0.00000000       0.00000000       0.31476977
2
Properties=species:S:1:pos:R:3:forces:R:3 energy=-1.3752633851095262 pbc="F F F"
Li       0.00000000       0.00000000       0.00000000       0.00000000       0.00000000      -0.18225111
Li       0.00000000       0.00000000       2.59030303       0.00000000       0.00000000       0.18225111
2
Properties=species:S:1:pos:R:3:forces:R:3 energy=-1.3826478040653454 pbc="F F F"
Li       0.00000000       0.00000000       0.00000000       0.00000000       0.00000000      -0.07258996
Li       0.00000000       0.00000000       2.64909091       0.00000000       0.00000000       0.07258996
2
Properties=species:S:1:pos:R:3:forces:R:3 energy=-1.3841999331000348 pbc="F F F"
Li       0.00000000       0.00000000       0.00000000       0.00000000       0.00000000       0.01663233
Li       0.00000000       0.00000000       2.70787879       0.00000000       0.00000000      -0.01663233
2
Properties=species:S:1:pos:R:3:forces:R:3 energy=-1.3810250679874947 pbc="F F F"
Li       0.00000000       0.00000000       0.00000000       0.00000000       0.00000000       0.08883727
Li       0.00000000       0.00000000       2.76666667       0.00000000       0.00000000      -0.08883727
2
Properties=species:S:1:pos:R:3:forces:R:3 energy=-1.3740265804033671 pbc="F F F"
Li       0.00000000       0.00000000       0.00000000       0.00000000       0.00000000       0.14713493
Li       0.00000000       0.00000000       2.82545455       0.00000000       0.00000000      -0.14713493
2
Properties=species:S:1:pos:R:3:forces:R:3 energy=-1.3639710598173187 pbc="F F F"
Li       0.00000000       0.00000000       0.00000000       0.00000000       0.00000000       0.19278197
Li       0.00000000       0.00000000       2.88424242       0.00000000       0.00000000      -0.19278197
2
Properties=species:S:1:pos:R:3:forces:R:3 energy=-1.3516509188505201 pbc="F F F"
Li       0.00000000       0.00000000       0.00000000       0.00000000       0.00000000       0.22339995
Li       0.00000000       0.00000000       2.94303030       0.00000000       0.00000000      -0.22339995
2
Properties=species:S:1:pos:R:3:forces:R:3 energy=-1.3381506998487374 pbc="F F F"
Li       0.00000000       0.00000000       0.00000000       0.00000000       0.00000000       0.23106278
Li       0.00000000       0.00000000       3.00181818       0.00000000       0.00000000      -0.23106278
2
Properties=species:S:1:pos:R:3:forces:R:3 energy=-1.3251928061313396 pbc="F F F"
Li       0.00000000       0.00000000       0.00000000       0.00000000       0.00000000       0.20265199
Li       0.00000000       0.00000000       3.06060606       0.00000000       0.00000000      -0.20265199
2
Properties=species:S:1:pos:R:3:forces:R:3 energy=-1.315174221889253 pbc="F F F"
Li       0.00000000       0.00000000       0.00000000       0.00000000       0.00000000       0.13218802
Li       0.00000000       0.00000000       3.11939394       0.00000000       0.00000000      -0.13218802
2
Properties=species:S:1:pos:R:3:forces:R:3 energy=-1.3098860311444522 pbc="F F F"
Li       0.00000000       0.00000000       0.00000000       0.00000000       0.00000000       0.05143577
Li       0.00000000       0.00000000       3.17818182       0.00000000       0.00000000      -0.05143577
2
Properties=species:S:1:pos:R:3:forces:R:3 energy=-1.3079540113963013 pbc="F F F"
Li       0.00000000       0.00000000       0.00000000       0.00000000       0.00000000       0.02886179
Li       0.00000000       0.00000000       3.23696970       0.00000000       0.00000000      -0.02886179
2
Properties=species:S:1:pos:R:3:forces:R:3 energy=-1.3047675198285416 pbc="F F F"
Li       0.00000000       0.00000000       0.00000000       0.00000000       0.00000000       0.09136412
Li       0.00000000       0.00000000       3.29575758       0.00000000       0.00000000      -0.09136412
2
Properties=species:S:1:pos:R:3:forces:R:3 energy=-1.2964249950491118 pbc="F F F"
Li       0.00000000       0.00000000       0.00000000       0.00000000       0.00000000       0.19408171
Li       0.00000000       0.00000000       3.35454545       0.00000000       0.00000000      -0.19408171
2
Properties=species:S:1:pos:R:3:forces:R:3 energy=-1.282179410089272 pbc="F F F"
Li       0.00000000       0.00000000       0.00000000       0.00000000       0.00000000       0.28630340
Li       0.00000000       0.00000000       3.41333333       0.00000000       0.00000000      -0.28630340
2
Properties=species:S:1:pos:R:3:forces:R:3 energy=-1.2633465296687676 pbc="F F F"
Li       0.00000000       0.00000000       0.00000000       0.00000000       0.00000000       0.34942013
Li       0.00000000       0.00000000       3.47212121       0.00000000       0.00000000      -0.34942013
2
Properties=species:S:1:pos:R:3:forces:R:3 energy=-1.2416197542798755 pbc="F F F"
Li       0.00000000       0.00000000       0.00000000       0.00000000       0.00000000       0.38596103
Li       0.00000000       0.00000000       3.53090909       0.00000000       0.00000000      -0.38596103
2
Properties=species:S:1:pos:R:3:forces:R:3 energy=-1.2183301468826904 pbc="F F F"
Li       0.00000000       0.00000000       0.00000000       0.00000000       0.00000000       0.40392819
Li       0.00000000       0.00000000       3.58969697       0.00000000       0.00000000      -0.40392819
2
Properties=species:S:1:pos:R:3:forces:R:3 energy=-1.1943536792943252 pbc="F F F"
Li       0.00000000       0.00000000       0.00000000       0.00000000       0.00000000       0.41026494
Li       0.00000000       0.00000000       3.64848485       0.00000000       0.00000000      -0.41026494
2
Properties=species:S:1:pos:R:3:forces:R:3 energy=-1.170227192474866 pbc="F F F"
Li       0.00000000       0.00000000       0.00000000       0.00000000       0.00000000       0.40967518
Li       0.00000000       0.00000000       3.70727273       0.00000000       0.00000000      -0.40967518
2
Properties=species:S:1:pos:R:3:forces:R:3 energy=-1.1462640727991023 pbc="F F F"
Li       0.00000000       0.00000000       0.00000000       0.00000000       0.00000000       0.40504548
Li       0.00000000       0.00000000       3.76606061       0.00000000       0.00000000      -0.40504548
2
Properties=species:S:1:pos:R:3:forces:R:3 energy=-1.1226491168393642 pbc="F F F"
Li       0.00000000       0.00000000       0.00000000       0.00000000       0.00000000       0.39806852
Li       0.00000000       0.00000000       3.82484848       0.00000000       0.00000000      -0.39806852
2
Properties=species:S:1:pos:R:3:forces:R:3 energy=-1.0994880865828163 pbc="F F F"
Li       0.00000000       0.00000000       0.00000000       0.00000000       0.00000000       0.38970131
Li       0.00000000       0.00000000       3.88363636       0.00000000       0.00000000      -0.38970131
2
Properties=species:S:1:pos:R:3:forces:R:3 energy=-1.0768467009046525 pbc="F F F"
Li       0.00000000       0.00000000       0.00000000       0.00000000       0.00000000       0.38046145
Li       0.00000000       0.00000000       3.94242424       0.00000000       0.00000000      -0.38046145
2
Properties=species:S:1:pos:R:3:forces:R:3 energy=-1.0547674715347106 pbc="F F F"
Li       0.00000000       0.00000000       0.00000000       0.00000000       0.00000000       0.37059617
Li       0.00000000       0.00000000       4.00121212       0.00000000       0.00000000      -0.37059617
2
Properties=species:S:1:pos:R:3:forces:R:3 energy=-1.0332840129093643 pbc="F F F"
Li       0.00000000       0.00000000       0.00000000       0.00000000       0.00000000       0.36018610
Li       0.00000000       0.00000000       4.06000000       0.00000000       0.00000000      -0.36018610
2
Properties=species:S:1:pos:R:3:forces:R:3 energy=-1.0124290158114762 pbc="F F F"
Li       0.00000000       0.00000000       0.00000000       0.00000000       0.00000000       0.34922221
Li       0.00000000       0.00000000       4.11878788       0.00000000       0.00000000      -0.34922221
2
Properties=species:S:1:pos:R:3:forces:R:3 energy=-0.9922355749521552 pbc="F F F"
Li       0.00000000       0.00000000       0.00000000       0.00000000       0.00000000       0.33766478
Li       0.00000000       0.00000000       4.17757576       0.00000000       0.00000000      -0.33766478
2
Properties=species:S:1:pos:R:3:forces:R:3 energy=-0.9727394017744513 pbc="F F F"
Li       0.00000000       0.00000000       0.00000000       0.00000000       0.00000000       0.32550740
Li       0.00000000       0.00000000       4.23636364       0.00000000       0.00000000      -0.32550740
2
Properties=species:S:1:pos:R:3:forces:R:3 energy=-0.9539739145378789 pbc="F F F"
Li       0.00000000       0.00000000       0.00000000       0.00000000       0.00000000       0.31282389
Li       0.00000000       0.00000000       4.29515152       0.00000000       0.00000000      -0.31282389
2
Properties=species:S:1:pos:R:3:forces:R:3 energy=-0.9359654945455865 pbc="F F F"
Li       0.00000000       0.00000000       0.00000000       0.00000000       0.00000000       0.29981554
Li       0.00000000       0.00000000       4.35393939       0.00000000       0.00000000      -0.29981554
2
Properties=species:S:1:pos:R:3:forces:R:3 energy=-0.9187231365269445 pbc="F F F"
Li       0.00000000       0.00000000       0.00000000       0.00000000       0.00000000       0.28681287
Li       0.00000000       0.00000000       4.41272727       0.00000000       0.00000000      -0.28681287
2
Properties=species:S:1:pos:R:3:forces:R:3 energy=-0.9022339642020043 pbc="F F F"
Li       0.00000000       0.00000000       0.00000000       0.00000000       0.00000000       0.27427363
Li       0.00000000       0.00000000       4.47151515       0.00000000       0.00000000      -0.27427363
2
Properties=species:S:1:pos:R:3:forces:R:3 energy=-0.8864555954713331 pbc="F F F"
Li       0.00000000       0.00000000       0.00000000       0.00000000       0.00000000       0.26273015
Li       0.00000000       0.00000000       4.53030303       0.00000000       0.00000000      -0.26273015
2
Properties=species:S:1:pos:R:3:forces:R:3 energy=-0.8713134515354508 pbc="F F F"
Li       0.00000000       0.00000000       0.00000000       0.00000000       0.00000000       0.25271755
Li       0.00000000       0.00000000       4.58909091       0.00000000       0.00000000      -0.25271755
2
Properties=species:S:1:pos:R:3:forces:R:3 energy=-0.8567035568972395 pbc="F F F"
Li       0.00000000       0.00000000       0.00000000       0.00000000       0.00000000       0.24468601
Li       0.00000000       0.00000000       4.64787879       0.00000000       0.00000000      -0.24468601
2
Properties=species:S:1:pos:R:3:forces:R:3 energy=-0.8425000772256678 pbc="F F F"
Li       0.00000000       0.00000000       0.00000000       0.00000000       0.00000000       0.23889154
Li       0.00000000       0.00000000       4.70666667       0.00000000       0.00000000      -0.23889154
2
Properties=species:S:1:pos:R:3:forces:R:3 energy=-0.828572212812838 pbc="F F F"
Li       0.00000000       0.00000000       0.00000000       0.00000000       0.00000000       0.23528501
Li       0.00000000       0.00000000       4.76545455       0.00000000       0.00000000      -0.23528501
2
Properties=species:S:1:pos:R:3:forces:R:3 energy=-0.8148020226986795 pbc="F F F"
Li       0.00000000       0.00000000       0.00000000       0.00000000       0.00000000       0.23339999
Li       0.00000000       0.00000000       4.82424242       0.00000000       0.00000000      -0.23339999
2
Properties=species:S:1:pos:R:3:forces:R:3 energy=-0.8011155622222036 pbc="F F F"
Li       0.00000000       0.00000000       0.00000000       0.00000000       0.00000000       0.23227365
Li       0.00000000       0.00000000       4.88303030       0.00000000       0.00000000      -0.23227365
2
Properties=species:S:1:pos:R:3:forces:R:3 energy=-0.7875055783039809 pbc="F F F"
Li       0.00000000       0.00000000       0.00000000       0.00000000       0.00000000       0.23047170
Li       0.00000000       0.00000000       4.94181818       0.00000000       0.00000000      -0.23047170
2
Properties=species:S:1:pos:R:3:forces:R:3 energy=-0.7740629297654862 pbc="F F F"
Li       0.00000000       0.00000000       0.00000000       0.00000000       0.00000000       0.22631592
Li       0.00000000       0.00000000       5.00060606       0.00000000       0.00000000      -0.22631592
2
Properties=species:S:1:pos:R:3:forces:R:3 energy=-0.7609670667610791 pbc="F F F"
Li       0.00000000       0.00000000       0.00000000       0.00000000       0.00000000       0.21857500
Li       0.00000000       0.00000000       5.05939394       0.00000000       0.00000000      -0.21857500
2
Properties=species:S:1:pos:R:3:forces:R:3 energy=-0.7484252683024006 pbc="F F F"
Li       0.00000000       0.00000000       0.00000000       0.00000000       0.00000000       0.20780490
Li       0.00000000       0.00000000       5.11818182       0.00000000       0.00000000      -0.20780490
2
Properties=species:S:1:pos:R:3:forces:R:3 energy=-0.7365241046518057 pbc="F F F"
Li       0.00000000       0.00000000       0.00000000       0.00000000       0.00000000       0.19768436
Li       0.00000000       0.00000000       5.17696970       0.00000000       0.00000000      -0.19768436
2
Properties=species:S:1:pos:R:3:forces:R:3 energy=-0.725056469562974 pbc="F F F"
Li       0.00000000       0.00000000       0.00000000       0.00000000       0.00000000       0.19390698
Li       0.00000000       0.00000000       5.23575758       0.00000000       0.00000000      -0.19390698
2
Properties=species:S:1:pos:R:3:forces:R:3 energy=-0.7135649736302592 pbc="F F F"
Li       0.00000000       0.00000000       0.00000000       0.00000000       0.00000000       0.19795737
Li       0.00000000       0.00000000       5.29454545       0.00000000       0.00000000      -0.19795737
2
Properties=species:S:1:pos:R:3:forces:R:3 energy=-0.7017890632398085 pbc="F F F"
Li       0.00000000       0.00000000       0.00000000       0.00000000       0.00000000       0.20145100
Li       0.00000000       0.00000000       5.35333333       0.00000000       0.00000000      -0.20145100
2
Properties=species:S:1:pos:R:3:forces:R:3 energy=-0.6901194616364643 pbc="F F F"
Li       0.00000000       0.00000000       0.00000000       0.00000000       0.00000000       0.19306570
Li       0.00000000       0.00000000       5.41212121       0.00000000       0.00000000      -0.19306570
2
Properties=species:S:1:pos:R:3:forces:R:3 energy=-0.6793309515498285 pbc="F F F"
Li       0.00000000       0.00000000       0.00000000       0.00000000       0.00000000       0.17285196
Li       0.00000000       0.00000000       5.47090909       0.00000000       0.00000000      -0.17285196
2
Properties=species:S:1:pos:R:3:forces:R:3 energy=-0.6697652271926124 pbc="F F F"
Li       0.00000000       0.00000000       0.00000000       0.00000000       0.00000000       0.15426645
Li       0.00000000       0.00000000       5.52969697       0.00000000       0.00000000      -0.15426645
2
Properties=species:S:1:pos:R:3:forces:R:3 energy=-0.6608698840115216 pbc="F F F"
Li       0.00000000       0.00000000       0.00000000       0.00000000       0.00000000       0.15161417
Li       0.00000000       0.00000000       5.58848485       0.00000000       0.00000000      -0.15161417
2
Properties=species:S:1:pos:R:3:forces:R:3 energy=-0.6516298109316442 pbc="F F F"
Li       0.00000000       0.00000000       0.00000000       0.00000000       0.00000000       0.16403008
Li       0.00000000       0.00000000       5.64727273       0.00000000       0.00000000      -0.16403008
2
Properties=species:S:1:pos:R:3:forces:R:3 energy=-0.6416756161696753 pbc="F F F"
Li       0.00000000       0.00000000       0.00000000       0.00000000       0.00000000       0.17197710
Li       0.00000000       0.00000000       5.70606061       0.00000000       0.00000000      -0.17197710
2
Properties=species:S:1:pos:R:3:forces:R:3 energy=-0.6318762742170484 pbc="F F F"
Li       0.00000000       0.00000000       0.00000000       0.00000000       0.00000000       0.15618841
Li       0.00000000       0.00000000       5.76484848       0.00000000       0.00000000      -0.15618841
2
Properties=species:S:1:pos:R:3:forces:R:3 energy=-0.6237860739319736 pbc="F F F"
Li       0.00000000       0.00000000       0.00000000       0.00000000       0.00000000       0.11653888
Li       0.00000000       0.00000000       5.82363636       0.00000000       0.00000000      -0.11653888
2
Properties=species:S:1:pos:R:3:forces:R:3 energy=-0.6183431267781249 pbc="F F F"
Li       0.00000000       0.00000000       0.00000000       0.00000000       0.00000000       0.06939387
Li       0.00000000       0.00000000       5.88242424       0.00000000       0.00000000      -0.06939387
2
Properties=species:S:1:pos:R:3:forces:R:3 energy=-0.6154088577553238 pbc="F F F"
Li       0.00000000       0.00000000       0.00000000       0.00000000       0.00000000       0.03306785
Li       0.00000000       0.00000000       5.94121212       0.00000000       0.00000000      -0.03306785
2
Properties=species:S:1:pos:R:3:forces:R:3 energy=-0.6140097834295283 pbc="F F F"
Li       0.00000000       0.00000000       0.00000000       0.00000000       0.00000000       0.01887134
Li       0.00000000       0.00000000       6.00000000       0.00000000       0.00000000      -0.01887134
