2
Properties=species:S:1:pos:R:3:forces:R:3 energy=378.4069367486004 pbc="F F F"
Li       0.00000000       0.00000000       0.00000000       0.00000000       0.00000000   -6662.75244141
Li       0.00000000       0.00000000       0.10000000       0.00000000       0.00000000    6662.75244141
2
Properties=species:S:1:pos:R:3:forces:R:3 energy=155.84725962457696 pbc="F F F"
Li       0.00000000       0.00000000       0.00000000       0.00000000       0.00000000   -1997.49829102
Li       0.00000000       0.00000000       0.15959596       0.00000000       0.00000000    1997.49829102
2
Properties=species:S:1:pos:R:3:forces:R:3 energy=78.73468027887384 pbc="F F F"
Li       0.00000000       0.00000000       0.00000000       0.00000000       0.00000000    -810.34448242
Li       0.00000000       0.00000000       0.21919192       0.00000000       0.00000000     810.34448242
2
Properties=species:S:1:pos:R:3:forces:R:3 energy=45.017261608219535 pbc="F F F"
Li       0.00000000       0.00000000       0.00000000       0.00000000       0.00000000    -385.02148438
Li       0.00000000       0.00000000       0.27878788       0.00000000       0.00000000     385.02148438
2
Properties=species:S:1:pos:R:3:forces:R:3 energy=28.2025853234295 pbc="F F F"
Li       0.00000000       0.00000000       0.00000000       0.00000000       0.00000000    -202.63758850
Li       0.00000000       0.00000000       0.33838384       0.00000000       0.00000000     202.63758850
2
Properties=species:S:1:pos:R:3:forces:R:3 energy=19.041563140318026 pbc="F F F"
Li       0.00000000       0.00000000       0.00000000       0.00000000       0.00000000    -114.66870880
Li       0.00000000       0.00000000       0.39797980       0.00000000       0.00000000     114.66870880
2
Properties=species:S:1:pos:R:3:forces:R:3 energy=13.726553075852888 pbc="F F F"
Li       0.00000000       0.00000000       0.00000000       0.00000000       0.00000000     -68.30503845
Li       0.00000000       0.00000000       0.45757576       0.00000000       0.00000000      68.30503845
2
Properties=species:S:1:pos:R:3:forces:R:3 energy=10.50884545613592 pbc="F F F"
Li       0.00000000       0.00000000       0.00000000       0.00000000       0.00000000     -41.99278641
Li       0.00000000       0.00000000       0.51717172       0.00000000       0.00000000      41.99278641
2
Properties=species:S:1:pos:R:3:forces:R:3 energy=8.519251020360894 pbc="F F F"
Li       0.00000000       0.00000000       0.00000000       0.00000000       0.00000000     -26.01148415
Li       0.00000000       0.00000000       0.57676768       0.00000000       0.00000000      26.01148415
2
Properties=species:S:1:pos:R:3:forces:R:3 energy=7.295937726770755 pbc="F F F"
Li       0.00000000       0.00000000       0.00000000       0.00000000       0.00000000     -15.77598858
Li       0.00000000       0.00000000       0.63636364       0.00000000       0.00000000      15.77598858
2
Properties=species:S:1:pos:R:3:forces:R:3 energy=6.567440761776368 pbc="F F F"
Li       0.00000000       0.00000000       0.00000000       0.00000000       0.00000000      -9.16752434
Li       0.00000000       0.00000000       0.69595960       0.00000000       0.00000000       9.16752434
2
Properties=species:S:1:pos:R:3:forces:R:3 energy=6.15171848983115 pbc="F F F"
Li       0.00000000       0.00000000       0.00000000       0.00000000       0.00000000      -5.17758417
Li       0.00000000       0.00000000       0.75555556       0.00000000       0.00000000       5.17758417
2
Properties=species:S:1:pos:R:3:forces:R:3 energy=5.905026454917423 pbc="F F F"
Li       0.00000000       0.00000000       0.00000000       0.00000000       0.00000000      -3.46934438
Li       0.00000000       0.00000000       0.81515152       0.00000000       0.00000000       3.46934438
2
Properties=species:S:1:pos:R:3:forces:R:3 energy=5.697748412345736 pbc="F F F"
Li       0.00000000       0.00000000       0.00000000       0.00000000       0.00000000      -3.78034210
Li       0.00000000       0.00000000       0.87474747       0.00000000       0.00000000       3.78034210
2
Properties=species:S:1:pos:R:3:forces:R:3 energy=5.427507924845701 pbc="F F F"
Li       0.00000000       0.00000000       0.00000000       0.00000000       0.00000000      -5.43789387
Li       0.00000000       0.00000000       0.93434343       0.00000000       0.00000000       5.43789387
2
Properties=species:S:1:pos:R:3:forces:R:3 energy=5.041405658687067 pbc="F F F"
Li       0.00000000       0.00000000       0.00000000       0.00000000       0.00000000      -7.50928593
Li       0.00000000       0.00000000       0.99393939       0.00000000       0.00000000       7.50928593
2
Properties=species:S:1:pos:R:3:forces:R:3 energy=4.542429033512022 pbc="F F F"
Li       0.00000000       0.00000000       0.00000000       0.00000000       0.00000000      -9.08749676
Li       0.00000000       0.00000000       1.05353535       0.00000000       0.00000000       9.08749676
2
Properties=species:S:1:pos:R:3:forces:R:3 energy=3.980399702553547 pbc="F F F"
Li       0.00000000       0.00000000       0.00000000       0.00000000       0.00000000      -9.58081341
Li       0.00000000       0.00000000       1.11313131       0.00000000       0.00000000       9.58081341
2
Properties=species:S:1:pos:R:3:forces:R:3 energy=3.4189277918171825 pbc="F F F"
Li       0.00000000       0.00000000       0.00000000       0.00000000       0.00000000      -9.15898800
Li       0.00000000       0.00000000       1.17272727       0.00000000       0.00000000       9.15898800
2
Properties=species:S:1:pos:R:3:forces:R:3 energy=2.89587589919902 pbc="F F F"
Li       0.00000000       0.00000000       0.00000000       0.00000000       0.00000000      -8.36320400
Li       0.00000000       0.00000000       1.23232323       0.00000000       0.00000000       8.36320400
2
Properties=species:S:1:pos:R:3:forces:R:3 energy=2.4239937647432703 pbc="F F F"
Li       0.00000000       0.00000000       0.00000000       0.00000000       0.00000000      -7.46831322
Li       0.00000000       0.00000000       1.29191919       0.00000000       0.00000000       7.46831322
2
Properties=species:S:1:pos:R:3:forces:R:3 energy=2.005107753961406 pbc="F F F"
Li       0.00000000       0.00000000       0.00000000       0.00000000       0.00000000      -6.60353374
Li       0.00000000       0.00000000       1.35151515       0.00000000       0.00000000       6.60353374
2
Properties=species:S:1:pos:R:3:forces:R:3 energy=1.6343647117079885 pbc="F F F"
Li       0.00000000       0.00000000       0.00000000       0.00000000       0.00000000      -5.86409378
Li       0.00000000       0.00000000       1.41111111       0.00000000       0.00000000       5.86409378
2
Properties=species:S:1:pos:R:3:forces:R:3 energy=1.3030684296001525 pbc="F F F"
Li       0.00000000       0.00000000       0.00000000       0.00000000       0.00000000      -5.27804804
Li       0.00000000       0.00000000       1.47070707       0.00000000       0.00000000       5.27804804
2
Properties=species:S:1:pos:R:3:forces:R:3 energy=1.0027461133027615 pbc="F F F"
Li       0.00000000       0.00000000       0.00000000       0.00000000       0.00000000      -4.81880188
Li       0.00000000       0.00000000       1.53030303       0.00000000       0.00000000       4.81880188
2
Properties=species:S:1:pos:R:3:forces:R:3 energy=0.7268527757618493 pbc="F F F"
Li       0.00000000       0.00000000       0.00000000       0.00000000       0.00000000      -4.45289040
Li       0.00000000       0.00000000       1.58989899       0.00000000       0.00000000       4.45289040
2
Properties=species:S:1:pos:R:3:forces:R:3 energy=0.4707891312693407 pbc="F F F"
Li       0.00000000       0.00000000       0.00000000       0.00000000       0.00000000      -4.14783859
Li       0.00000000       0.00000000       1.64949495       0.00000000       0.00000000       4.14783859
2
Properties=species:S:1:pos:R:3:forces:R:3 energy=0.2318694558882295 pbc="F F F"
Li       0.00000000       0.00000000       0.00000000       0.00000000       0.00000000      -3.87293434
Li       0.00000000       0.00000000       1.70909091       0.00000000       0.00000000       3.87293434
2
Properties=species:S:1:pos:R:3:forces:R:3 energy=0.009039185397365757 pbc="F F F"
Li       0.00000000       0.00000000       0.00000000       0.00000000       0.00000000      -3.60481334
Li       0.00000000       0.00000000       1.76868687       0.00000000       0.00000000       3.60481334
2
Properties=species:S:1:pos:R:3:forces:R:3 energy=-0.19764628485349411 pbc="F F F"
Li       0.00000000       0.00000000       0.00000000       0.00000000       0.00000000      -3.32941318
Li       0.00000000       0.00000000       1.82828283       0.00000000       0.00000000       3.32941318
2
Properties=species:S:1:pos:R:3:forces:R:3 energy=-0.38750827691199957 pbc="F F F"
Li       0.00000000       0.00000000       0.00000000       0.00000000       0.00000000      -3.03948522
Li       0.00000000       0.00000000       1.88787879       0.00000000       0.00000000       3.03948522
2
Properties=species:S:1:pos:R:3:forces:R:3 energy=-0.5596019042270336 pbc="F F F"
Li       0.00000000       0.00000000       0.00000000       0.00000000       0.00000000      -2.73337817
Li       0.00000000       0.00000000       1.94747475       0.00000000       0.00000000       2.73337817
2
Properties=species:S:1:pos:R:3:forces:R:3 energy=-0.7130909601057485 pbc="F F F"
Li       0.00000000       0.00000000       0.00000000       0.00000000       0.00000000      -2.41669226
Li       0.00000000       0.00000000       2.00707071       0.00000000       0.00000000       2.41669226
2
Properties=species:S:1:pos:R:3:forces:R:3 energy=-0.8476807136669126 pbc="F F F"
Li       0.00000000       0.00000000       0.00000000       0.00000000       0.00000000      -2.10148692
Li       0.00000000       0.00000000       2.06666667       0.00000000       0.00000000       2.10148692
2
Properties=species:S:1:pos:R:3:forces:R:3 energy=-0.9638592699304376 pbc="F F F"
Li       0.00000000       0.00000000       0.00000000       0.00000000       0.00000000      -1.80065799
Li       0.00000000       0.00000000       2.12626263       0.00000000       0.00000000       1.80065799
2
Properties=species:S:1:pos:R:3:forces:R:3 energy=-1.0627469215375842 pbc="F F F"
Li       0.00000000       0.00000000       0.00000000       0.00000000       0.00000000      -1.52187765
Li       0.00000000       0.00000000       2.18585859       0.00000000       0.00000000       1.52187765
2
Properties=species:S:1:pos:R:3:forces:R:3 energy=-1.1457154081193774 pbc="F F F"
Li       0.00000000       0.00000000       0.00000000       0.00000000       0.00000000      -1.26614404
Li       0.00000000       0.00000000       2.24545455       0.00000000       0.00000000       1.26614404
2
Properties=species:S:1:pos:R:3:forces:R:3 energy=-1.214068456159471 pbc="F F F"
Li       0.00000000       0.00000000       0.00000000       0.00000000       0.00000000      -1.03094101
Li       0.00000000       0.00000000       2.30505051       0.00000000       0.00000000       1.03094101
2
Properties=species:S:1:pos:R:3:forces:R:3 energy=-1.2689617233726285 pbc="F F F"
Li       0.00000000       0.00000000       0.00000000       0.00000000       0.00000000      -0.81424755
Li       0.00000000       0.00000000       2.36464646       0.00000000       0.00000000       0.81424755
2
Properties=species:S:1:pos:R:3:forces:R:3 energy=-1.3114937204666814 pbc="F F F"
Li       0.00000000       0.00000000       0.00000000       0.00000000       0.00000000      -0.61641151
Li       0.00000000       0.00000000       2.42424242       0.00000000       0.00000000       0.61641151
2
Properties=species:S:1:pos:R:3:forces:R:3 energy=-1.3428490744541501 pbc="F F F"
Li       0.00000000       0.00000000       0.00000000       0.00000000       0.00000000      -0.43956488
Li       0.00000000       0.00000000       2.48383838       0.00000000       0.00000000       0.43956488
2
Properties=species:S:1:pos:R:3:forces:R:3 energy=-1.3643496415192038 pbc="F F F"
Li       0.00000000       0.00000000       0.00000000       0.00000000       0.00000000      -0.28599286
Li       0.00000000       0.00000000       2.54343434       0.00000000       0.00000000       0.28599286
2
Properties=species:S:1:pos:R:3:forces:R:3 energy=-1.3774195383623864 pbc="F F F"
Li       0.00000000       0.00000000       0.00000000       0.00000000       0.00000000      -0.15663013
Li       0.00000000       0.00000000       2.60303030       0.00000000       0.00000000       0.15663013
2
Properties=species:S:1:pos:R:3:forces:R:3 energy=-1.3834782508422274 pbc="F F F"
Li       0.00000000       0.00000000       0.00000000       0.00000000       0.00000000      -0.05035302
Li       0.00000000       0.00000000       2.66262626       0.00000000       0.00000000       0.05035302
2
Properties=species:S:1:pos:R:3:forces:R:3 energy=-1.3838238900359827 pbc="F F F"
Li       0.00000000       0.00000000       0.00000000       0.00000000       0.00000000       0.03568394
Li       0.00000000       0.00000000       2.72222222       0.00000000       0.00000000      -0.03568394
2
Properties=species:S:1:pos:R:3:forces:R:3 energy=-1.3795550546562472 pbc="F F F"
Li       0.00000000       0.00000000       0.00000000       0.00000000       0.00000000       0.10509488
Li       0.00000000       0.00000000       2.78181818       0.00000000       0.00000000      -0.10509488
2
Properties=species:S:1:pos:R:3:forces:R:3 energy=-1.371568220834336 pbc="F F F"
Li       0.00000000       0.00000000       0.00000000       0.00000000       0.00000000       0.16079542
Li       0.00000000       0.00000000       2.84141414       0.00000000       0.00000000      -0.16079542
2
Properties=species:S:1:pos:R:3:forces:R:3 energy=-1.3606491817663073 pbc="F F F"
Li       0.00000000       0.00000000       0.00000000       0.00000000       0.00000000       0.20327346
Li       0.00000000       0.00000000       2.90101010       0.00000000       0.00000000      -0.20327346
2
Properties=species:S:1:pos:R:3:forces:R:3 energy=-1.3476753707269016 pbc="F F F"
Li       0.00000000       0.00000000       0.00000000       0.00000000       0.00000000       0.22862405
Li       0.00000000       0.00000000       2.96060606       0.00000000       0.00000000      -0.22862405
2
Properties=species:S:1:pos:R:3:forces:R:3 energy=-1.3339368410034125 pbc="F F F"
Li       0.00000000       0.00000000       0.00000000       0.00000000       0.00000000       0.22670120
Li       0.00000000       0.00000000       3.02020202       0.00000000       0.00000000      -0.22670120
2
Properties=species:S:1:pos:R:3:forces:R:3 energy=-1.3214769073826809 pbc="F F F"
Li       0.00000000       0.00000000       0.00000000       0.00000000       0.00000000       0.18381386
Li       0.00000000       0.00000000       3.07979798       0.00000000       0.00000000      -0.18381386
2
Properties=species:S:1:pos:R:3:forces:R:3 energy=-1.3128245924613011 pbc="F F F"
Li       0.00000000       0.00000000       0.00000000       0.00000000       0.00000000       0.10268569
Li       0.00000000       0.00000000       3.13939394       0.00000000       0.00000000      -0.10268569
2
Properties=species:S:1:pos:R:3:forces:R:3 energy=-1.3090175034536544 pbc="F F F"
Li       0.00000000       0.00000000       0.00000000       0.00000000       0.00000000       0.03361025
Li       0.00000000       0.00000000       3.19898990       0.00000000       0.00000000      -0.03361025
2
Properties=species:S:1:pos:R:3:forces:R:3 energy=-1.3071954374422483 pbc="F F F"
Li       0.00000000       0.00000000       0.00000000       0.00000000       0.00000000       0.04328975
Li       0.00000000       0.00000000       3.25858586       0.00000000       0.00000000      -0.04328975
2
Properties=species:S:1:pos:R:3:forces:R:3 energy=-1.3023027871656931 pbc="F F F"
Li       0.00000000       0.00000000       0.00000000       0.00000000       0.00000000       0.12915879
Li       0.00000000       0.00000000       3.31818182       0.00000000       0.00000000      -0.12915879
2
Properties=species:S:1:pos:R:3:forces:R:3 energy=-1.2914519167388911 pbc="F F F"
Li       0.00000000       0.00000000       0.00000000       0.00000000       0.00000000       0.23352110
Li       0.00000000       0.00000000       3.37777778       0.00000000       0.00000000      -0.23352110
2
Properties=species:S:1:pos:R:3:forces:R:3 energy=-1.2749324040687464 pbc="F F F"
Li       0.00000000       0.00000000       0.00000000       0.00000000       0.00000000       0.31574991
Li       0.00000000       0.00000000       3.43737374       0.00000000       0.00000000      -0.31574991
2
Properties=species:S:1:pos:R:3:forces:R:3 energy=-1.254427848907548 pbc="F F F"
Li       0.00000000       0.00000000       0.00000000       0.00000000       0.00000000       0.36765885
Li       0.00000000       0.00000000       3.49696970       0.00000000       0.00000000      -0.36765885
2
Properties=species:S:1:pos:R:3:forces:R:3 energy=-1.2315864899833922 pbc="F F F"
Li       0.00000000       0.00000000       0.00000000       0.00000000       0.00000000       0.39562574
Li       0.00000000       0.00000000       3.55656566       0.00000000       0.00000000      -0.39562574
2
Properties=species:S:1:pos:R:3:forces:R:3 energy=-1.2075830759486639 pbc="F F F"
Li       0.00000000       0.00000000       0.00000000       0.00000000       0.00000000       0.40788862
Li       0.00000000       0.00000000       3.61616162       0.00000000       0.00000000      -0.40788862
2
Properties=species:S:1:pos:R:3:forces:R:3 energy=-1.1831569084247895 pbc="F F F"
Li       0.00000000       0.00000000       0.00000000       0.00000000       0.00000000       0.41064295
Li       0.00000000       0.00000000       3.67575758       0.00000000       0.00000000      -0.41064295
2
Properties=species:S:1:pos:R:3:forces:R:3 energy=-1.1587469427981565 pbc="F F F"
Li       0.00000000       0.00000000       0.00000000       0.00000000       0.00000000       0.40784186
Li       0.00000000       0.00000000       3.73535354       0.00000000       0.00000000      -0.40784186
2
Properties=species:S:1:pos:R:3:forces:R:3 energy=-1.1346082757413498 pbc="F F F"
Li       0.00000000       0.00000000       0.00000000       0.00000000       0.00000000       0.40183854
Li       0.00000000       0.00000000       3.79494949       0.00000000       0.00000000      -0.40183854
2
Properties=species:S:1:pos:R:3:forces:R:3 energy=-1.1108875211235856 pbc="F F F"
Li       0.00000000       0.00000000       0.00000000       0.00000000       0.00000000       0.39397535
Li       0.00000000       0.00000000       3.85454545       0.00000000       0.00000000      -0.39397535
2
Properties=species:S:1:pos:R:3:forces:R:3 energy=-1.087671528289979 pbc="F F F"
Li       0.00000000       0.00000000       0.00000000       0.00000000       0.00000000       0.38499570
Li       0.00000000       0.00000000       3.91414141       0.00000000       0.00000000      -0.38499570
2
Properties=species:S:1:pos:R:3:forces:R:3 energy=-1.0650137136386373 pbc="F F F"
Li       0.00000000       0.00000000       0.00000000       0.00000000       0.00000000       0.37527558
Li       0.00000000       0.00000000       3.97373737       0.00000000       0.00000000      -0.37527558
2
Properties=species:S:1:pos:R:3:forces:R:3 energy=-1.042953224567851 pbc="F F F"
Li       0.00000000       0.00000000       0.00000000       0.00000000       0.00000000       0.36497447
Li       0.00000000       0.00000000       4.03333333       0.00000000       0.00000000      -0.36497447
2
Properties=species:S:1:pos:R:3:forces:R:3 energy=-1.0215228886217225 pbc="F F F"
Li       0.00000000       0.00000000       0.00000000       0.00000000       0.00000000       0.35411537
Li       0.00000000       0.00000000       4.09292929       0.00000000       0.00000000      -0.35411537
2
Properties=species:S:1:pos:R:3:forces:R:3 energy=-1.0007571346049453 pbc="F F F"
Li       0.00000000       0.00000000       0.00000000       0.00000000       0.00000000       0.34266424
Li       0.00000000       0.00000000       4.15252525       0.00000000       0.00000000      -0.34266424
2
Properties=species:S:1:pos:R:3:forces:R:3 energy=-0.980692644834467 pbc="F F F"
Li       0.00000000       0.00000000       0.00000000       0.00000000       0.00000000       0.33059126
Li       0.00000000       0.00000000       4.21212121       0.00000000       0.00000000      -0.33059126
2
Properties=species:S:1:pos:R:3:forces:R:3 energy=-0.9613650214553062 pbc="F F F"
Li       0.00000000       0.00000000       0.00000000       0.00000000       0.00000000       0.31793365
Li       0.00000000       0.00000000       4.27171717       0.00000000       0.00000000      -0.31793365
2
Properties=species:S:1:pos:R:3:forces:R:3 energy=-0.942806323819368 pbc="F F F"
Li       0.00000000       0.00000000       0.00000000       0.00000000       0.00000000       0.30484244
Li       0.00000000       0.00000000       4.33131313       0.00000000       0.00000000      -0.30484244
2
Properties=species:S:1:pos:R:3:forces:R:3 energy=-0.9250331043749312 pbc="F F F"
Li       0.00000000       0.00000000       0.00000000       0.00000000       0.00000000       0.29161078
Li       0.00000000       0.00000000       4.39090909       0.00000000       0.00000000      -0.29161078
2
Properties=species:S:1:pos:R:3:forces:R:3 energy=-0.9080425784663053 pbc="F F F"
Li       0.00000000       0.00000000       0.00000000       0.00000000       0.00000000       0.27866897
Li       0.00000000       0.00000000       4.45050505       0.00000000       0.00000000      -0.27866897
2
Properties=species:S:1:pos:R:3:forces:R:3 energy=-0.8918017964633672 pbc="F F F"
Li       0.00000000       0.00000000       0.00000000       0.00000000       0.00000000       0.26655030
Li       0.00000000       0.00000000       4.51010101       0.00000000       0.00000000      -0.26655030
2
Properties=species:S:1:pos:R:3:forces:R:3 energy=-0.8762441411747014 pbc="F F F"
Li       0.00000000       0.00000000       0.00000000       0.00000000       0.00000000       0.25582099
Li       0.00000000       0.00000000       4.56969697       0.00000000       0.00000000      -0.25582099
2
Properties=species:S:1:pos:R:3:forces:R:3 energy=-0.8612718802639993 pbc="F F F"
Li       0.00000000       0.00000000       0.00000000       0.00000000       0.00000000       0.24698947
Li       0.00000000       0.00000000       4.62929293       0.00000000       0.00000000      -0.24698947
2
Properties=species:S:1:pos:R:3:forces:R:3 energy=-0.8467603742531549 pbc="F F F"
Li       0.00000000       0.00000000       0.00000000       0.00000000       0.00000000       0.24040368
Li       0.00000000       0.00000000       4.68888889       0.00000000       0.00000000      -0.24040368
2
Properties=species:S:1:pos:R:3:forces:R:3 energy=-0.8325717801749292 pbc="F F F"
Li       0.00000000       0.00000000       0.00000000       0.00000000       0.00000000       0.23612067
Li       0.00000000       0.00000000       4.74848485       0.00000000       0.00000000      -0.23612067
2
Properties=species:S:1:pos:R:3:forces:R:3 energy=-0.8185777712779937 pbc="F F F"
Li       0.00000000       0.00000000       0.00000000       0.00000000       0.00000000       0.23379123
Li       0.00000000       0.00000000       4.80808081       0.00000000       0.00000000      -0.23379123
2
Properties=species:S:1:pos:R:3:forces:R:3 energy=-0.8046833922281977 pbc="F F F"
Li       0.00000000       0.00000000       0.00000000       0.00000000       0.00000000       0.23256759
Li       0.00000000       0.00000000       4.86767677       0.00000000       0.00000000      -0.23256759
2
Properties=species:S:1:pos:R:3:forces:R:3 energy=-0.7908621434856097 pbc="F F F"
Li       0.00000000       0.00000000       0.00000000       0.00000000       0.00000000       0.23107287
Li       0.00000000       0.00000000       4.92727273       0.00000000       0.00000000      -0.23107287
2
Properties=species:S:1:pos:R:3:forces:R:3 energy=-0.7771809680740247 pbc="F F F"
Li       0.00000000       0.00000000       0.00000000       0.00000000       0.00000000       0.22757977
Li       0.00000000       0.00000000       4.98686869       0.00000000       0.00000000      -0.22757977
2
Properties=species:S:1:pos:R:3:forces:R:3 energy=-0.7638080157759545 pbc="F F F"
Li       0.00000000       0.00000000       0.00000000       0.00000000       0.00000000       0.22059891
Li       0.00000000       0.00000000       5.04646465       0.00000000       0.00000000      -0.22059891
2
Properties=species:S:1:pos:R:3:forces:R:3 energy=-0.7509594573665301 pbc="F F F"
Li       0.00000000       0.00000000       0.00000000       0.00000000       0.00000000       0.21014281
Li       0.00000000       0.00000000       5.10606061       0.00000000       0.00000000      -0.21014281
2
Properties=species:S:1:pos:R:3:forces:R:3 energy=-0.7387685784784516 pbc="F F F"
Li       0.00000000       0.00000000       0.00000000       0.00000000       0.00000000       0.19930941
Li       0.00000000       0.00000000       5.16565657       0.00000000       0.00000000      -0.19930941
2
Properties=species:S:1:pos:R:3:forces:R:3 energy=-0.7270924638999996 pbc="F F F"
Li       0.00000000       0.00000000       0.00000000       0.00000000       0.00000000       0.19393457
Li       0.00000000       0.00000000       5.22525253       0.00000000       0.00000000      -0.19393457
2
Properties=species:S:1:pos:R:3:forces:R:3 energy=-0.7154789149973155 pbc="F F F"
Li       0.00000000       0.00000000       0.00000000       0.00000000       0.00000000       0.19699298
Li       0.00000000       0.00000000       5.28484848       0.00000000       0.00000000      -0.19699298
2
Properties=species:S:1:pos:R:3:forces:R:3 energy=-0.7035792401419284 pbc="F F F"
Li       0.00000000       0.00000000       0.00000000       0.00000000       0.00000000       0.20148075
Li       0.00000000       0.00000000       5.34444444       0.00000000       0.00000000      -0.20148075
2
Properties=species:S:1:pos:R:3:forces:R:3 energy=-0.6916872531778144 pbc="F F F"
Li       0.00000000       0.00000000       0.00000000       0.00000000       0.00000000       0.19509205
Li       0.00000000       0.00000000       5.40404040       0.00000000       0.00000000      -0.19509205
2
Properties=species:S:1:pos:R:3:forces:R:3 energy=-0.6805949418180544 pbc="F F F"
Li       0.00000000       0.00000000       0.00000000       0.00000000       0.00000000       0.17561567
Li       0.00000000       0.00000000       5.46363636       0.00000000       0.00000000      -0.17561567
2
Properties=species:S:1:pos:R:3:forces:R:3 energy=-0.6707688348242163 pbc="F F F"
Li       0.00000000       0.00000000       0.00000000       0.00000000       0.00000000       0.15570547
Li       0.00000000       0.00000000       5.52323232       0.00000000       0.00000000      -0.15570547
2
Properties=species:S:1:pos:R:3:forces:R:3 energy=-0.6617262258955753 pbc="F F F"
Li       0.00000000       0.00000000       0.00000000       0.00000000       0.00000000       0.15103522
Li       0.00000000       0.00000000       5.58282828       0.00000000       0.00000000      -0.15103522
2
Properties=species:S:1:pos:R:3:forces:R:3 energy=-0.6524242969648311 pbc="F F F"
Li       0.00000000       0.00000000       0.00000000       0.00000000       0.00000000       0.16282646
Li       0.00000000       0.00000000       5.64242424       0.00000000       0.00000000      -0.16282646
2
Properties=species:S:1:pos:R:3:forces:R:3 energy=-0.6423612973393057 pbc="F F F"
Li       0.00000000       0.00000000       0.00000000       0.00000000       0.00000000       0.17210484
Li       0.00000000       0.00000000       5.70202020       0.00000000       0.00000000      -0.17210484
2
Properties=species:S:1:pos:R:3:forces:R:3 energy=-0.6324019973390599 pbc="F F F"
Li       0.00000000       0.00000000       0.00000000       0.00000000       0.00000000       0.15772283
Li       0.00000000       0.00000000       5.76161616       0.00000000       0.00000000      -0.15772283
2
Properties=species:S:1:pos:R:3:forces:R:3 energy=-0.6240738592283637 pbc="F F F"
Li       0.00000000       0.00000000       0.00000000       0.00000000       0.00000000       0.11841456
Li       0.00000000       0.00000000       5.82121212       0.00000000       0.00000000      -0.11841456
2
Properties=species:S:1:pos:R:3:forces:R:3 energy=-0.6184661453463799 pbc="F F F"
Li       0.00000000       0.00000000       0.00000000       0.00000000       0.00000000       0.07062159
Li       0.00000000       0.00000000       5.88080808       0.00000000       0.00000000      -0.07062159
2
Properties=species:S:1:pos:R:3:forces:R:3 energy=-0.6154328119373186 pbc="F F F"
Li       0.00000000       0.00000000       0.00000000       0.00000000       0.00000000       0.03349747
Li       0.00000000       0.00000000       5.94040404       0.00000000       0.00000000      -0.03349747
2
Properties=species:S:1:pos:R:3:forces:R:3 energy=-0.6140097834295283 pbc="F F F"
Li       0.00000000       0.00000000       0.00000000       0.00000000       0.00000000       0.01887134
Li       0.00000000       0.00000000       6.00000000       0.00000000       0.00000000      -0.01887134
