2
Properties=species:S:1:pos:R:3:forces:R:3 energy=3220.9825167723975 pbc="F F F"
Mn       0.00000000       0.00000000       0.00000000       0.00000000       0.00000000  -49471.76562500
Mn       0.00000000       0.00000000       0.18000000       0.00000000       0.00000000   49471.76562500
2
Properties=species:S:1:pos:R:3:forces:R:3 energy=1415.9371066161475 pbc="F F F"
Mn       0.00000000       0.00000000       0.00000000       0.00000000       0.00000000  -18125.21875000
Mn       0.00000000       0.00000000       0.23878788       0.00000000       0.00000000   18125.21875000
2
Properties=species:S:1:pos:R:3:forces:R:3 energy=703.3228488036475 pbc="F F F"
Mn       0.00000000       0.00000000       0.00000000       0.00000000       0.00000000   -7807.40283203
Mn       0.00000000       0.00000000       0.29757576       0.00000000       0.00000000    7807.40283203
2
Properties=species:S:1:pos:R:3:forces:R:3 energy=380.96521330876845 pbc="F F F"
Mn       0.00000000       0.00000000       0.00000000       0.00000000       0.00000000   -3732.60009766
Mn       0.00000000       0.00000000       0.35636364       0.00000000       0.00000000    3732.60009766
2
Properties=species:S:1:pos:R:3:forces:R:3 energy=221.68194915178 pbc="F F F"
Mn       0.00000000       0.00000000       0.00000000       0.00000000       0.00000000   -1913.26806641
Mn       0.00000000       0.00000000       0.41515152       0.00000000       0.00000000    1913.26806641
2
Properties=species:S:1:pos:R:3:forces:R:3 energy=138.1434970160138 pbc="F F F"
Mn       0.00000000       0.00000000       0.00000000       0.00000000       0.00000000   -1028.94946289
Mn       0.00000000       0.00000000       0.47393939       0.00000000       0.00000000    1028.94946289
2
Properties=species:S:1:pos:R:3:forces:R:3 energy=92.51080660533323 pbc="F F F"
Mn       0.00000000       0.00000000       0.00000000       0.00000000       0.00000000    -571.26159668
Mn       0.00000000       0.00000000       0.53272727       0.00000000       0.00000000     571.26159668
2
Properties=species:S:1:pos:R:3:forces:R:3 energy=66.95224341092522 pbc="F F F"
Mn       0.00000000       0.00000000       0.00000000       0.00000000       0.00000000    -322.57333374
Mn       0.00000000       0.00000000       0.59151515       0.00000000       0.00000000     322.57333374
2
Properties=species:S:1:pos:R:3:forces:R:3 energy=52.46332897503211 pbc="F F F"
Mn       0.00000000       0.00000000       0.00000000       0.00000000       0.00000000    -183.65875244
Mn       0.00000000       0.00000000       0.65030303       0.00000000       0.00000000     183.65875244
2
Properties=species:S:1:pos:R:3:forces:R:3 energy=44.169048054703936 pbc="F F F"
Mn       0.00000000       0.00000000       0.00000000       0.00000000       0.00000000    -106.15541077
Mn       0.00000000       0.00000000       0.70909091       0.00000000       0.00000000     106.15541077
2
Properties=species:S:1:pos:R:3:forces:R:3 energy=39.27645480713122 pbc="F F F"
Mn       0.00000000       0.00000000       0.00000000       0.00000000       0.00000000     -65.06945801
Mn       0.00000000       0.00000000       0.76787879       0.00000000       0.00000000      65.06945801
2
Properties=species:S:1:pos:R:3:forces:R:3 energy=36.053768239125894 pbc="F F F"
Mn       0.00000000       0.00000000       0.00000000       0.00000000       0.00000000     -47.87398529
Mn       0.00000000       0.00000000       0.82666667       0.00000000       0.00000000      47.87398529
2
Properties=species:S:1:pos:R:3:forces:R:3 energy=33.31322897028081 pbc="F F F"
Mn       0.00000000       0.00000000       0.00000000       0.00000000       0.00000000     -47.81275177
Mn       0.00000000       0.00000000       0.88545455       0.00000000       0.00000000      47.81275177
2
Properties=species:S:1:pos:R:3:forces:R:3 energy=30.187582781407702 pbc="F F F"
Mn       0.00000000       0.00000000       0.00000000       0.00000000       0.00000000     -60.20093155
Mn       0.00000000       0.00000000       0.94424242       0.00000000       0.00000000      60.20093155
2
Properties=species:S:1:pos:R:3:forces:R:3 energy=26.095576642923504 pbc="F F F"
Mn       0.00000000       0.00000000       0.00000000       0.00000000       0.00000000     -79.62401581
Mn       0.00000000       0.00000000       1.00303030       0.00000000       0.00000000      79.62401581
2
Properties=species:S:1:pos:R:3:forces:R:3 energy=20.837217475136267 pbc="F F F"
Mn       0.00000000       0.00000000       0.00000000       0.00000000       0.00000000     -98.37316895
Mn       0.00000000       0.00000000       1.06181818       0.00000000       0.00000000      98.37316895
2
Properties=species:S:1:pos:R:3:forces:R:3 energy=14.731246167122071 pbc="F F F"
Mn       0.00000000       0.00000000       0.00000000       0.00000000       0.00000000    -106.92594147
Mn       0.00000000       0.00000000       1.12060606       0.00000000       0.00000000     106.92594147
2
Properties=species:S:1:pos:R:3:forces:R:3 energy=8.595625431889554 pbc="F F F"
Mn       0.00000000       0.00000000       0.00000000       0.00000000       0.00000000     -98.92662811
Mn       0.00000000       0.00000000       1.17939394       0.00000000       0.00000000      98.92662811
2
Properties=species:S:1:pos:R:3:forces:R:3 energy=3.3733523147227436 pbc="F F F"
Mn       0.00000000       0.00000000       0.00000000       0.00000000       0.00000000     -77.47972870
Mn       0.00000000       0.00000000       1.23818182       0.00000000       0.00000000      77.47972870
2
Properties=species:S:1:pos:R:3:forces:R:3 energy=-0.5281805906804607 pbc="F F F"
Mn       0.00000000       0.00000000       0.00000000       0.00000000       0.00000000     -56.40046692
Mn       0.00000000       0.00000000       1.29696970       0.00000000       0.00000000      56.40046692
2
Properties=species:S:1:pos:R:3:forces:R:3 energy=-3.4109121967376894 pbc="F F F"
Mn       0.00000000       0.00000000       0.00000000       0.00000000       0.00000000     -42.73314667
Mn       0.00000000       0.00000000       1.35575758       0.00000000       0.00000000      42.73314667
2
Properties=species:S:1:pos:R:3:forces:R:3 energy=-5.634732376706028 pbc="F F F"
Mn       0.00000000       0.00000000       0.00000000       0.00000000       0.00000000     -33.33335876
Mn       0.00000000       0.00000000       1.41454545       0.00000000       0.00000000      33.33335876
2
Properties=species:S:1:pos:R:3:forces:R:3 energy=-7.3573882630458804 pbc="F F F"
Mn       0.00000000       0.00000000       0.00000000       0.00000000       0.00000000     -25.37878418
Mn       0.00000000       0.00000000       1.47333333       0.00000000       0.00000000      25.37878418
2
Properties=species:S:1:pos:R:3:forces:R:3 energy=-8.625512479928883 pbc="F F F"
Mn       0.00000000       0.00000000       0.00000000       0.00000000       0.00000000     -17.82548714
Mn       0.00000000       0.00000000       1.53212121       0.00000000       0.00000000      17.82548714
2
Properties=species:S:1:pos:R:3:forces:R:3 energy=-9.466833941401623 pbc="F F F"
Mn       0.00000000       0.00000000       0.00000000       0.00000000       0.00000000     -10.96984386
Mn       0.00000000       0.00000000       1.59090909       0.00000000       0.00000000      10.96984386
2
Properties=species:S:1:pos:R:3:forces:R:3 energy=-9.94075498973935 pbc="F F F"
Mn       0.00000000       0.00000000       0.00000000       0.00000000       0.00000000      -5.41662407
Mn       0.00000000       0.00000000       1.64969697       0.00000000       0.00000000       5.41662407
2
Properties=species:S:1:pos:R:3:forces:R:3 energy=-10.14153396819875 pbc="F F F"
Mn       0.00000000       0.00000000       0.00000000       0.00000000       0.00000000      -1.77325678
Mn       0.00000000       0.00000000       1.70848485       0.00000000       0.00000000       1.77325678
2
Properties=species:S:1:pos:R:3:forces:R:3 energy=-10.18830026993211 pbc="F F F"
Mn       0.00000000       0.00000000       0.00000000       0.00000000       0.00000000      -0.09225712
Mn       0.00000000       0.00000000       1.76727273       0.00000000       0.00000000       0.09225712
2
Properties=species:S:1:pos:R:3:forces:R:3 energy=-10.177131601541847 pbc="F F F"
Mn       0.00000000       0.00000000       0.00000000       0.00000000       0.00000000       0.31523171
Mn       0.00000000       0.00000000       1.82606061       0.00000000       0.00000000      -0.31523171
2
Properties=species:S:1:pos:R:3:forces:R:3 energy=-10.165331068240302 pbc="F F F"
Mn       0.00000000       0.00000000       0.00000000       0.00000000       0.00000000      -0.00298671
Mn       0.00000000       0.00000000       1.88484848       0.00000000       0.00000000       0.00298671
2
Properties=species:S:1:pos:R:3:forces:R:3 energy=-10.184812708808316 pbc="F F F"
Mn       0.00000000       0.00000000       0.00000000       0.00000000       0.00000000      -0.69564623
Mn       0.00000000       0.00000000       1.94363636       0.00000000       0.00000000       0.69564623
2
Properties=species:S:1:pos:R:3:forces:R:3 energy=-10.248367224393185 pbc="F F F"
Mn       0.00000000       0.00000000       0.00000000       0.00000000       0.00000000      -1.45428562
Mn       0.00000000       0.00000000       2.00242424       0.00000000       0.00000000       1.45428562
2
Properties=species:S:1:pos:R:3:forces:R:3 energy=-10.352349283524953 pbc="F F F"
Mn       0.00000000       0.00000000       0.00000000       0.00000000       0.00000000      -2.04132915
Mn       0.00000000       0.00000000       2.06121212       0.00000000       0.00000000       2.04132915
2
Properties=species:S:1:pos:R:3:forces:R:3 energy=-10.48272932026905 pbc="F F F"
Mn       0.00000000       0.00000000       0.00000000       0.00000000       0.00000000      -2.34408951
Mn       0.00000000       0.00000000       2.12000000       0.00000000       0.00000000       2.34408951
2
Properties=species:S:1:pos:R:3:forces:R:3 energy=-10.622365290586172 pbc="F F F"
Mn       0.00000000       0.00000000       0.00000000       0.00000000       0.00000000      -2.36393142
Mn       0.00000000       0.00000000       2.17878788       0.00000000       0.00000000       2.36393142
2
Properties=species:S:1:pos:R:3:forces:R:3 energy=-10.75655858105604 pbc="F F F"
Mn       0.00000000       0.00000000       0.00000000       0.00000000       0.00000000      -2.17449617
Mn       0.00000000       0.00000000       2.23757576       0.00000000       0.00000000       2.17449617
2
Properties=species:S:1:pos:R:3:forces:R:3 energy=-10.875799916453063 pbc="F F F"
Mn       0.00000000       0.00000000       0.00000000       0.00000000       0.00000000      -1.87045753
Mn       0.00000000       0.00000000       2.29636364       0.00000000       0.00000000       1.87045753
2
Properties=species:S:1:pos:R:3:forces:R:3 energy=-10.975827265195798 pbc="F F F"
Mn       0.00000000       0.00000000       0.00000000       0.00000000       0.00000000      -1.53234422
Mn       0.00000000       0.00000000       2.35515152       0.00000000       0.00000000       1.53234422
2
Properties=species:S:1:pos:R:3:forces:R:3 energy=-11.0564341271128 pbc="F F F"
Mn       0.00000000       0.00000000       0.00000000       0.00000000       0.00000000      -1.21741652
Mn       0.00000000       0.00000000       2.41393939       0.00000000       0.00000000       1.21741652
2
Properties=species:S:1:pos:R:3:forces:R:3 energy=-11.120140431641742 pbc="F F F"
Mn       0.00000000       0.00000000       0.00000000       0.00000000       0.00000000      -0.96185029
Mn       0.00000000       0.00000000       2.47272727       0.00000000       0.00000000       0.96185029
2
Properties=species:S:1:pos:R:3:forces:R:3 energy=-11.171066334412897 pbc="F F F"
Mn       0.00000000       0.00000000       0.00000000       0.00000000       0.00000000      -0.78434014
Mn       0.00000000       0.00000000       2.53151515       0.00000000       0.00000000       0.78434014
2
Properties=species:S:1:pos:R:3:forces:R:3 energy=-11.213820465845735 pbc="F F F"
Mn       0.00000000       0.00000000       0.00000000       0.00000000       0.00000000      -0.67924470
Mn       0.00000000       0.00000000       2.59030303       0.00000000       0.00000000       0.67924470
2
Properties=species:S:1:pos:R:3:forces:R:3 energy=-11.251070142606562 pbc="F F F"
Mn       0.00000000       0.00000000       0.00000000       0.00000000       0.00000000      -0.57912219
Mn       0.00000000       0.00000000       2.64909091       0.00000000       0.00000000       0.57912219
2
Properties=species:S:1:pos:R:3:forces:R:3 energy=-11.280041819276349 pbc="F F F"
Mn       0.00000000       0.00000000       0.00000000       0.00000000       0.00000000      -0.39038974
Mn       0.00000000       0.00000000       2.70787879       0.00000000       0.00000000       0.39038974
2
Properties=species:S:1:pos:R:3:forces:R:3 energy=-11.296129587357866 pbc="F F F"
Mn       0.00000000       0.00000000       0.00000000       0.00000000       0.00000000      -0.15980257
Mn       0.00000000       0.00000000       2.76666667       0.00000000       0.00000000       0.15980257
2
Properties=species:S:1:pos:R:3:forces:R:3 energy=-11.29980216829635 pbc="F F F"
Mn       0.00000000       0.00000000       0.00000000       0.00000000       0.00000000       0.02484635
Mn       0.00000000       0.00000000       2.82545455       0.00000000       0.00000000      -0.02484635
2
Properties=species:S:1:pos:R:3:forces:R:3 energy=-11.294261814140269 pbc="F F F"
Mn       0.00000000       0.00000000       0.00000000       0.00000000       0.00000000       0.15611224
Mn       0.00000000       0.00000000       2.88424242       0.00000000       0.00000000      -0.15611224
2
Properties=species:S:1:pos:R:3:forces:R:3 energy=-11.282204074066312 pbc="F F F"
Mn       0.00000000       0.00000000       0.00000000       0.00000000       0.00000000       0.24838389
Mn       0.00000000       0.00000000       2.94303030       0.00000000       0.00000000      -0.24838389
2
Properties=species:S:1:pos:R:3:forces:R:3 energy=-11.265679693594057 pbc="F F F"
Mn       0.00000000       0.00000000       0.00000000       0.00000000       0.00000000       0.30885091
Mn       0.00000000       0.00000000       3.00181818       0.00000000       0.00000000      -0.30885091
2
Properties=species:S:1:pos:R:3:forces:R:3 energy=-11.24642544321346 pbc="F F F"
Mn       0.00000000       0.00000000       0.00000000       0.00000000       0.00000000       0.34212181
Mn       0.00000000       0.00000000       3.06060606       0.00000000       0.00000000      -0.34212181
2
Properties=species:S:1:pos:R:3:forces:R:3 energy=-11.225862885664409 pbc="F F F"
Mn       0.00000000       0.00000000       0.00000000       0.00000000       0.00000000       0.35462835
Mn       0.00000000       0.00000000       3.11939394       0.00000000       0.00000000      -0.35462835
2
Properties=species:S:1:pos:R:3:forces:R:3 energy=-11.20497683386525 pbc="F F F"
Mn       0.00000000       0.00000000       0.00000000       0.00000000       0.00000000       0.35452199
Mn       0.00000000       0.00000000       3.17818182       0.00000000       0.00000000      -0.35452199
2
Properties=species:S:1:pos:R:3:forces:R:3 energy=-11.18427109331271 pbc="F F F"
Mn       0.00000000       0.00000000       0.00000000       0.00000000       0.00000000       0.34967139
Mn       0.00000000       0.00000000       3.23696970       0.00000000       0.00000000      -0.34967139
2
Properties=species:S:1:pos:R:3:forces:R:3 energy=-11.163842267208762 pbc="F F F"
Mn       0.00000000       0.00000000       0.00000000       0.00000000       0.00000000       0.34583476
Mn       0.00000000       0.00000000       3.29575758       0.00000000       0.00000000      -0.34583476
2
Properties=species:S:1:pos:R:3:forces:R:3 energy=-11.143529859819607 pbc="F F F"
Mn       0.00000000       0.00000000       0.00000000       0.00000000       0.00000000       0.34596437
Mn       0.00000000       0.00000000       3.35454545       0.00000000       0.00000000      -0.34596437
2
Properties=species:S:1:pos:R:3:forces:R:3 energy=-11.12307565713606 pbc="F F F"
Mn       0.00000000       0.00000000       0.00000000       0.00000000       0.00000000       0.35061622
Mn       0.00000000       0.00000000       3.41333333       0.00000000       0.00000000      -0.35061622
2
Properties=species:S:1:pos:R:3:forces:R:3 energy=-11.102233988634875 pbc="F F F"
Mn       0.00000000       0.00000000       0.00000000       0.00000000       0.00000000       0.35888705
Mn       0.00000000       0.00000000       3.47212121       0.00000000       0.00000000      -0.35888705
2
Properties=species:S:1:pos:R:3:forces:R:3 energy=-11.080837765225409 pbc="F F F"
Mn       0.00000000       0.00000000       0.00000000       0.00000000       0.00000000       0.36927173
Mn       0.00000000       0.00000000       3.53090909       0.00000000       0.00000000      -0.36927173
2
Properties=species:S:1:pos:R:3:forces:R:3 energy=-11.058808212397757 pbc="F F F"
Mn       0.00000000       0.00000000       0.00000000       0.00000000       0.00000000       0.38013014
Mn       0.00000000       0.00000000       3.58969697       0.00000000       0.00000000      -0.38013014
2
Properties=species:S:1:pos:R:3:forces:R:3 energy=-11.036166345992772 pbc="F F F"
Mn       0.00000000       0.00000000       0.00000000       0.00000000       0.00000000       0.38982213
Mn       0.00000000       0.00000000       3.64848485       0.00000000       0.00000000      -0.38982213
2
Properties=species:S:1:pos:R:3:forces:R:3 energy=-11.013029379252352 pbc="F F F"
Mn       0.00000000       0.00000000       0.00000000       0.00000000       0.00000000       0.39673010
Mn       0.00000000       0.00000000       3.70727273       0.00000000       0.00000000      -0.39673010
2
Properties=species:S:1:pos:R:3:forces:R:3 energy=-10.989604154805178 pbc="F F F"
Mn       0.00000000       0.00000000       0.00000000       0.00000000       0.00000000       0.39936686
Mn       0.00000000       0.00000000       3.76606061       0.00000000       0.00000000      -0.39936686
2
Properties=species:S:1:pos:R:3:forces:R:3 energy=-10.966179439244447 pbc="F F F"
Mn       0.00000000       0.00000000       0.00000000       0.00000000       0.00000000       0.39660063
Mn       0.00000000       0.00000000       3.82484848       0.00000000       0.00000000      -0.39660063
2
Properties=species:S:1:pos:R:3:forces:R:3 energy=-10.94308989891576 pbc="F F F"
Mn       0.00000000       0.00000000       0.00000000       0.00000000       0.00000000       0.38789582
Mn       0.00000000       0.00000000       3.88363636       0.00000000       0.00000000      -0.38789582
2
Properties=species:S:1:pos:R:3:forces:R:3 energy=-10.920684615993386 pbc="F F F"
Mn       0.00000000       0.00000000       0.00000000       0.00000000       0.00000000       0.37346488
Mn       0.00000000       0.00000000       3.94242424       0.00000000       0.00000000      -0.37346488
2
Properties=species:S:1:pos:R:3:forces:R:3 energy=-10.899274585707712 pbc="F F F"
Mn       0.00000000       0.00000000       0.00000000       0.00000000       0.00000000       0.35425565
Mn       0.00000000       0.00000000       4.00121212       0.00000000       0.00000000      -0.35425565
2
Properties=species:S:1:pos:R:3:forces:R:3 energy=-10.879097468409396 pbc="F F F"
Mn       0.00000000       0.00000000       0.00000000       0.00000000       0.00000000       0.33176002
Mn       0.00000000       0.00000000       4.06000000       0.00000000       0.00000000      -0.33176002
2
Properties=species:S:1:pos:R:3:forces:R:3 energy=-10.860297524394861 pbc="F F F"
Mn       0.00000000       0.00000000       0.00000000       0.00000000       0.00000000       0.30773133
Mn       0.00000000       0.00000000       4.11878788       0.00000000       0.00000000      -0.30773133
2
Properties=species:S:1:pos:R:3:forces:R:3 energy=-10.84291307042036 pbc="F F F"
Mn       0.00000000       0.00000000       0.00000000       0.00000000       0.00000000       0.28384802
Mn       0.00000000       0.00000000       4.17757576       0.00000000       0.00000000      -0.28384802
2
Properties=species:S:1:pos:R:3:forces:R:3 energy=-10.826893544469364 pbc="F F F"
Mn       0.00000000       0.00000000       0.00000000       0.00000000       0.00000000       0.26145977
Mn       0.00000000       0.00000000       4.23636364       0.00000000       0.00000000      -0.26145977
2
Properties=species:S:1:pos:R:3:forces:R:3 energy=-10.81212416823626 pbc="F F F"
Mn       0.00000000       0.00000000       0.00000000       0.00000000       0.00000000       0.24143356
Mn       0.00000000       0.00000000       4.29515152       0.00000000       0.00000000      -0.24143356
2
Properties=species:S:1:pos:R:3:forces:R:3 energy=-10.798453552996364 pbc="F F F"
Mn       0.00000000       0.00000000       0.00000000       0.00000000       0.00000000       0.22413263
Mn       0.00000000       0.00000000       4.35393939       0.00000000       0.00000000      -0.22413263
2
Properties=species:S:1:pos:R:3:forces:R:3 energy=-10.785719977998625 pbc="F F F"
Mn       0.00000000       0.00000000       0.00000000       0.00000000       0.00000000       0.20948994
Mn       0.00000000       0.00000000       4.41272727       0.00000000       0.00000000      -0.20948994
2
Properties=species:S:1:pos:R:3:forces:R:3 energy=-10.773777101658295 pbc="F F F"
Mn       0.00000000       0.00000000       0.00000000       0.00000000       0.00000000       0.19714825
Mn       0.00000000       0.00000000       4.47151515       0.00000000       0.00000000      -0.19714825
2
Properties=species:S:1:pos:R:3:forces:R:3 energy=-10.762505272600196 pbc="F F F"
Mn       0.00000000       0.00000000       0.00000000       0.00000000       0.00000000       0.18658300
Mn       0.00000000       0.00000000       4.53030303       0.00000000       0.00000000      -0.18658300
2
Properties=species:S:1:pos:R:3:forces:R:3 energy=-10.751816928586758 pbc="F F F"
Mn       0.00000000       0.00000000       0.00000000       0.00000000       0.00000000       0.17719753
Mn       0.00000000       0.00000000       4.58909091       0.00000000       0.00000000      -0.17719753
2
Properties=species:S:1:pos:R:3:forces:R:3 energy=-10.741660309844983 pbc="F F F"
Mn       0.00000000       0.00000000       0.00000000       0.00000000       0.00000000       0.16838428
Mn       0.00000000       0.00000000       4.64787879       0.00000000       0.00000000      -0.16838428
2
Properties=species:S:1:pos:R:3:forces:R:3 energy=-10.732019370367416 pbc="F F F"
Mn       0.00000000       0.00000000       0.00000000       0.00000000       0.00000000       0.15954918
Mn       0.00000000       0.00000000       4.70666667       0.00000000       0.00000000      -0.15954918
2
Properties=species:S:1:pos:R:3:forces:R:3 energy=-10.722911610802102 pbc="F F F"
Mn       0.00000000       0.00000000       0.00000000       0.00000000       0.00000000       0.15015557
Mn       0.00000000       0.00000000       4.76545455       0.00000000       0.00000000      -0.15015557
2
Properties=species:S:1:pos:R:3:forces:R:3 energy=-10.714383367101798 pbc="F F F"
Mn       0.00000000       0.00000000       0.00000000       0.00000000       0.00000000       0.13978308
Mn       0.00000000       0.00000000       4.82424242       0.00000000       0.00000000      -0.13978308
2
Properties=species:S:1:pos:R:3:forces:R:3 energy=-10.706500115389707 pbc="F F F"
Mn       0.00000000       0.00000000       0.00000000       0.00000000       0.00000000       0.12823221
Mn       0.00000000       0.00000000       4.88303030       0.00000000       0.00000000      -0.12823221
2
Properties=species:S:1:pos:R:3:forces:R:3 energy=-10.699327354123634 pbc="F F F"
Mn       0.00000000       0.00000000       0.00000000       0.00000000       0.00000000       0.11563604
Mn       0.00000000       0.00000000       4.94181818       0.00000000       0.00000000      -0.11563604
2
Properties=species:S:1:pos:R:3:forces:R:3 energy=-10.692914407471722 pbc="F F F"
Mn       0.00000000       0.00000000       0.00000000       0.00000000       0.00000000       0.10251112
Mn       0.00000000       0.00000000       5.00060606       0.00000000       0.00000000      -0.10251112
2
Properties=species:S:1:pos:R:3:forces:R:3 energy=-10.687269727982715 pbc="F F F"
Mn       0.00000000       0.00000000       0.00000000       0.00000000       0.00000000       0.08959476
Mn       0.00000000       0.00000000       5.05939394       0.00000000       0.00000000      -0.08959476
2
Properties=species:S:1:pos:R:3:forces:R:3 energy=-10.682365531908998 pbc="F F F"
Mn       0.00000000       0.00000000       0.00000000       0.00000000       0.00000000       0.07741003
Mn       0.00000000       0.00000000       5.11818182       0.00000000       0.00000000      -0.07741003
2
Properties=species:S:1:pos:R:3:forces:R:3 energy=-10.6781570247484 pbc="F F F"
Mn       0.00000000       0.00000000       0.00000000       0.00000000       0.00000000       0.06578743
Mn       0.00000000       0.00000000       5.17696970       0.00000000       0.00000000      -0.06578743
2
Properties=species:S:1:pos:R:3:forces:R:3 energy=-10.674632062000729 pbc="F F F"
Mn       0.00000000       0.00000000       0.00000000       0.00000000       0.00000000       0.05410645
Mn       0.00000000       0.00000000       5.23575758       0.00000000       0.00000000      -0.05410645
2
Properties=species:S:1:pos:R:3:forces:R:3 energy=-10.67179495254351 pbc="F F F"
Mn       0.00000000       0.00000000       0.00000000       0.00000000       0.00000000       0.04255294
Mn       0.00000000       0.00000000       5.29454545       0.00000000       0.00000000      -0.04255294
2
Properties=species:S:1:pos:R:3:forces:R:3 energy=-10.66959412193592 pbc="F F F"
Mn       0.00000000       0.00000000       0.00000000       0.00000000       0.00000000       0.03276137
Mn       0.00000000       0.00000000       5.35333333       0.00000000       0.00000000      -0.03276137
2
Properties=species:S:1:pos:R:3:forces:R:3 energy=-10.667878251319806 pbc="F F F"
Mn       0.00000000       0.00000000       0.00000000       0.00000000       0.00000000       0.02616594
Mn       0.00000000       0.00000000       5.41212121       0.00000000       0.00000000      -0.02616594
2
Properties=species:S:1:pos:R:3:forces:R:3 energy=-10.666468875461055 pbc="F F F"
Mn       0.00000000       0.00000000       0.00000000       0.00000000       0.00000000       0.02201265
Mn       0.00000000       0.00000000       5.47090909       0.00000000       0.00000000      -0.02201265
2
Properties=species:S:1:pos:R:3:forces:R:3 energy=-10.665295869442874 pbc="F F F"
Mn       0.00000000       0.00000000       0.00000000       0.00000000       0.00000000       0.01757017
Mn       0.00000000       0.00000000       5.52969697       0.00000000       0.00000000      -0.01757017
2
Properties=species:S:1:pos:R:3:forces:R:3 energy=-10.6644651943883 pbc="F F F"
Mn       0.00000000       0.00000000       0.00000000       0.00000000       0.00000000       0.01004594
Mn       0.00000000       0.00000000       5.58848485       0.00000000       0.00000000      -0.01004594
2
Properties=species:S:1:pos:R:3:forces:R:3 energy=-10.664181798728226 pbc="F F F"
Mn       0.00000000       0.00000000       0.00000000       0.00000000       0.00000000      -0.00075735
Mn       0.00000000       0.00000000       5.64727273       0.00000000       0.00000000       0.00075735
2
Properties=species:S:1:pos:R:3:forces:R:3 energy=-10.664536909231039 pbc="F F F"
Mn       0.00000000       0.00000000       0.00000000       0.00000000       0.00000000      -0.01064248
Mn       0.00000000       0.00000000       5.70606061       0.00000000       0.00000000       0.01064248
2
Properties=species:S:1:pos:R:3:forces:R:3 energy=-10.665298305016409 pbc="F F F"
Mn       0.00000000       0.00000000       0.00000000       0.00000000       0.00000000      -0.01364246
Mn       0.00000000       0.00000000       5.76484848       0.00000000       0.00000000       0.01364246
2
Properties=species:S:1:pos:R:3:forces:R:3 energy=-10.66596479895247 pbc="F F F"
Mn       0.00000000       0.00000000       0.00000000       0.00000000       0.00000000      -0.00788058
Mn       0.00000000       0.00000000       5.82363636       0.00000000       0.00000000       0.00788058
2
Properties=species:S:1:pos:R:3:forces:R:3 energy=-10.666130444626104 pbc="F F F"
Mn       0.00000000       0.00000000       0.00000000       0.00000000       0.00000000       0.00237993
Mn       0.00000000       0.00000000       5.88242424       0.00000000       0.00000000      -0.00237993
2
Properties=species:S:1:pos:R:3:forces:R:3 energy=-10.665720230115461 pbc="F F F"
Mn       0.00000000       0.00000000       0.00000000       0.00000000       0.00000000       0.01094033
Mn       0.00000000       0.00000000       5.94121212       0.00000000       0.00000000      -0.01094033
2
Properties=species:S:1:pos:R:3:forces:R:3 energy=-10.664961459840896 pbc="F F F"
Mn       0.00000000       0.00000000       0.00000000       0.00000000       0.00000000       0.01369574
Mn       0.00000000       0.00000000       6.00000000       0.00000000       0.00000000      -0.01369574
