2
Properties=species:S:1:pos:R:3:forces:R:3 energy=6788.0280623445715 pbc="F F F"
Mo       0.00000000       0.00000000       0.00000000       0.00000000       0.00000000 -110770.50781250
Mo       0.00000000       0.00000000       0.18000000       0.00000000       0.00000000  110770.50781250
2
Properties=species:S:1:pos:R:3:forces:R:3 energy=2826.526353360196 pbc="F F F"
Mo       0.00000000       0.00000000       0.00000000       0.00000000       0.00000000  -38731.75390625
Mo       0.00000000       0.00000000       0.23878788       0.00000000       0.00000000   38731.75390625
2
Properties=species:S:1:pos:R:3:forces:R:3 energy=1332.2147078587193 pbc="F F F"
Mo       0.00000000       0.00000000       0.00000000       0.00000000       0.00000000  -15961.53417969
Mo       0.00000000       0.00000000       0.29757576       0.00000000       0.00000000   15961.53417969
2
Properties=species:S:1:pos:R:3:forces:R:3 energy=686.2271590305944 pbc="F F F"
Mo       0.00000000       0.00000000       0.00000000       0.00000000       0.00000000   -7287.36328125
Mo       0.00000000       0.00000000       0.35636364       0.00000000       0.00000000    7287.36328125
2
Properties=species:S:1:pos:R:3:forces:R:3 energy=381.6170821389688 pbc="F F F"
Mo       0.00000000       0.00000000       0.00000000       0.00000000       0.00000000   -3565.44458008
Mo       0.00000000       0.00000000       0.41515152       0.00000000       0.00000000    3565.44458008
2
Properties=species:S:1:pos:R:3:forces:R:3 energy=229.03030541824162 pbc="F F F"
Mo       0.00000000       0.00000000       0.00000000       0.00000000       0.00000000   -1834.55249023
Mo       0.00000000       0.00000000       0.47393939       0.00000000       0.00000000    1834.55249023
2
Properties=species:S:1:pos:R:3:forces:R:3 energy=149.15715175706077 pbc="F F F"
Mo       0.00000000       0.00000000       0.00000000       0.00000000       0.00000000    -978.16693115
Mo       0.00000000       0.00000000       0.53272727       0.00000000       0.00000000     978.16693115
2
Properties=species:S:1:pos:R:3:forces:R:3 energy=106.18249666271439 pbc="F F F"
Mo       0.00000000       0.00000000       0.00000000       0.00000000       0.00000000    -529.65991211
Mo       0.00000000       0.00000000       0.59151515       0.00000000       0.00000000     529.65991211
2
Properties=species:S:1:pos:R:3:forces:R:3 energy=83.01860972115198 pbc="F F F"
Mo       0.00000000       0.00000000       0.00000000       0.00000000       0.00000000    -281.85067749
Mo       0.00000000       0.00000000       0.65030303       0.00000000       0.00000000     281.85067749
2
Properties=species:S:1:pos:R:3:forces:R:3 energy=70.96898827850491 pbc="F F F"
Mo       0.00000000       0.00000000       0.00000000       0.00000000       0.00000000    -141.39048767
Mo       0.00000000       0.00000000       0.70909091       0.00000000       0.00000000     141.39048767
2
Properties=species:S:1:pos:R:3:forces:R:3 energy=65.19130903788614 pbc="F F F"
Mo       0.00000000       0.00000000       0.00000000       0.00000000       0.00000000     -62.83809280
Mo       0.00000000       0.00000000       0.76787879       0.00000000       0.00000000      62.83809280
2
Properties=species:S:1:pos:R:3:forces:R:3 energy=62.892584226494535 pbc="F F F"
Mo       0.00000000       0.00000000       0.00000000       0.00000000       0.00000000     -19.92322159
Mo       0.00000000       0.00000000       0.82666667       0.00000000       0.00000000      19.92322159
2
Properties=species:S:1:pos:R:3:forces:R:3 energy=62.392409181244126 pbc="F F F"
Mo       0.00000000       0.00000000       0.00000000       0.00000000       0.00000000      -0.54362416
Mo       0.00000000       0.00000000       0.88545455       0.00000000       0.00000000       0.54362416
2
Properties=species:S:1:pos:R:3:forces:R:3 energy=62.44920301502789 pbc="F F F"
Mo       0.00000000       0.00000000       0.00000000       0.00000000       0.00000000      -0.59659398
Mo       0.00000000       0.00000000       0.94424242       0.00000000       0.00000000       0.59659398
2
Properties=species:S:1:pos:R:3:forces:R:3 energy=61.976501837637045 pbc="F F F"
Mo       0.00000000       0.00000000       0.00000000       0.00000000       0.00000000     -18.23249817
Mo       0.00000000       0.00000000       1.00303030       0.00000000       0.00000000      18.23249817
2
Properties=species:S:1:pos:R:3:forces:R:3 energy=60.02895506545536 pbc="F F F"
Mo       0.00000000       0.00000000       0.00000000       0.00000000       0.00000000     -49.84297943
Mo       0.00000000       0.00000000       1.06181818       0.00000000       0.00000000      49.84297943
2
Properties=species:S:1:pos:R:3:forces:R:3 energy=55.97835079941292 pbc="F F F"
Mo       0.00000000       0.00000000       0.00000000       0.00000000       0.00000000     -88.47283936
Mo       0.00000000       0.00000000       1.12060606       0.00000000       0.00000000      88.47283936
2
Properties=species:S:1:pos:R:3:forces:R:3 energy=49.64805722606109 pbc="F F F"
Mo       0.00000000       0.00000000       0.00000000       0.00000000       0.00000000    -125.98580170
Mo       0.00000000       0.00000000       1.17939394       0.00000000       0.00000000     125.98580170
2
Properties=species:S:1:pos:R:3:forces:R:3 energy=41.3579291830983 pbc="F F F"
Mo       0.00000000       0.00000000       0.00000000       0.00000000       0.00000000    -153.69163513
Mo       0.00000000       0.00000000       1.23818182       0.00000000       0.00000000     153.69163513
2
Properties=species:S:1:pos:R:3:forces:R:3 energy=31.923118011837044 pbc="F F F"
Mo       0.00000000       0.00000000       0.00000000       0.00000000       0.00000000    -163.98030090
Mo       0.00000000       0.00000000       1.29696970       0.00000000       0.00000000     163.98030090
2
Properties=species:S:1:pos:R:3:forces:R:3 energy=22.45030951543181 pbc="F F F"
Mo       0.00000000       0.00000000       0.00000000       0.00000000       0.00000000    -155.64564514
Mo       0.00000000       0.00000000       1.35575758       0.00000000       0.00000000     155.64564514
2
Properties=species:S:1:pos:R:3:forces:R:3 energy=13.83356305249402 pbc="F F F"
Mo       0.00000000       0.00000000       0.00000000       0.00000000       0.00000000    -136.53517151
Mo       0.00000000       0.00000000       1.41454545       0.00000000       0.00000000     136.53517151
2
Properties=species:S:1:pos:R:3:forces:R:3 energy=6.447595590827959 pbc="F F F"
Mo       0.00000000       0.00000000       0.00000000       0.00000000       0.00000000    -114.60948944
Mo       0.00000000       0.00000000       1.47333333       0.00000000       0.00000000     114.60948944
2
Properties=species:S:1:pos:R:3:forces:R:3 energy=0.3729423061856705 pbc="F F F"
Mo       0.00000000       0.00000000       0.00000000       0.00000000       0.00000000     -91.82099152
Mo       0.00000000       0.00000000       1.53212121       0.00000000       0.00000000      91.82099152
2
Properties=species:S:1:pos:R:3:forces:R:3 energy=-4.316733287953803 pbc="F F F"
Mo       0.00000000       0.00000000       0.00000000       0.00000000       0.00000000     -67.61631775
Mo       0.00000000       0.00000000       1.59090909       0.00000000       0.00000000      67.61631775
2
Properties=species:S:1:pos:R:3:forces:R:3 energy=-7.6149759492045845 pbc="F F F"
Mo       0.00000000       0.00000000       0.00000000       0.00000000       0.00000000     -45.37044144
Mo       0.00000000       0.00000000       1.64969697       0.00000000       0.00000000      45.37044144
2
Properties=species:S:1:pos:R:3:forces:R:3 energy=-9.771109657188708 pbc="F F F"
Mo       0.00000000       0.00000000       0.00000000       0.00000000       0.00000000     -29.04384041
Mo       0.00000000       0.00000000       1.70848485       0.00000000       0.00000000      29.04384041
2
Properties=species:S:1:pos:R:3:forces:R:3 energy=-11.13735502487606 pbc="F F F"
Mo       0.00000000       0.00000000       0.00000000       0.00000000       0.00000000     -18.17492485
Mo       0.00000000       0.00000000       1.76727273       0.00000000       0.00000000      18.17492485
2
Properties=species:S:1:pos:R:3:forces:R:3 energy=-11.977499889058942 pbc="F F F"
Mo       0.00000000       0.00000000       0.00000000       0.00000000       0.00000000     -10.87958908
Mo       0.00000000       0.00000000       1.82606061       0.00000000       0.00000000      10.87958908
2
Properties=species:S:1:pos:R:3:forces:R:3 energy=-12.461510567291567 pbc="F F F"
Mo       0.00000000       0.00000000       0.00000000       0.00000000       0.00000000      -5.89145470
Mo       0.00000000       0.00000000       1.88484848       0.00000000       0.00000000       5.89145470
2
Properties=species:S:1:pos:R:3:forces:R:3 energy=-12.698839963092597 pbc="F F F"
Mo       0.00000000       0.00000000       0.00000000       0.00000000       0.00000000      -2.37607098
Mo       0.00000000       0.00000000       1.94363636       0.00000000       0.00000000       2.37607098
2
Properties=species:S:1:pos:R:3:forces:R:3 energy=-12.759343798142696 pbc="F F F"
Mo       0.00000000       0.00000000       0.00000000       0.00000000       0.00000000       0.18952984
Mo       0.00000000       0.00000000       2.00242424       0.00000000       0.00000000      -0.18952984
2
Properties=species:S:1:pos:R:3:forces:R:3 energy=-12.689345091417639 pbc="F F F"
Mo       0.00000000       0.00000000       0.00000000       0.00000000       0.00000000       2.09684992
Mo       0.00000000       0.00000000       2.06121212       0.00000000       0.00000000      -2.09684992
2
Properties=species:S:1:pos:R:3:forces:R:3 energy=-12.523282289611712 pbc="F F F"
Mo       0.00000000       0.00000000       0.00000000       0.00000000       0.00000000       3.46528339
Mo       0.00000000       0.00000000       2.12000000       0.00000000       0.00000000      -3.46528339
2
Properties=species:S:1:pos:R:3:forces:R:3 energy=-12.292387754102174 pbc="F F F"
Mo       0.00000000       0.00000000       0.00000000       0.00000000       0.00000000       4.29985523
Mo       0.00000000       0.00000000       2.17878788       0.00000000       0.00000000      -4.29985523
2
Properties=species:S:1:pos:R:3:forces:R:3 energy=-12.027772136765801 pbc="F F F"
Mo       0.00000000       0.00000000       0.00000000       0.00000000       0.00000000       4.62695169
Mo       0.00000000       0.00000000       2.23757576       0.00000000       0.00000000      -4.62695169
2
Properties=species:S:1:pos:R:3:forces:R:3 energy=-11.755274421301039 pbc="F F F"
Mo       0.00000000       0.00000000       0.00000000       0.00000000       0.00000000       4.60459375
Mo       0.00000000       0.00000000       2.29636364       0.00000000       0.00000000      -4.60459375
2
Properties=species:S:1:pos:R:3:forces:R:3 energy=-11.488686409015013 pbc="F F F"
Mo       0.00000000       0.00000000       0.00000000       0.00000000       0.00000000       4.46143436
Mo       0.00000000       0.00000000       2.35515152       0.00000000       0.00000000      -4.46143436
2
Properties=species:S:1:pos:R:3:forces:R:3 energy=-11.230153337744468 pbc="F F F"
Mo       0.00000000       0.00000000       0.00000000       0.00000000       0.00000000       4.34142160
Mo       0.00000000       0.00000000       2.41393939       0.00000000       0.00000000      -4.34142160
2
Properties=species:S:1:pos:R:3:forces:R:3 energy=-10.97794297169186 pbc="F F F"
Mo       0.00000000       0.00000000       0.00000000       0.00000000       0.00000000       4.23299694
Mo       0.00000000       0.00000000       2.47272727       0.00000000       0.00000000      -4.23299694
2
Properties=species:S:1:pos:R:3:forces:R:3 energy=-10.734398407960047 pbc="F F F"
Mo       0.00000000       0.00000000       0.00000000       0.00000000       0.00000000       4.02575636
Mo       0.00000000       0.00000000       2.53151515       0.00000000       0.00000000      -4.02575636
2
Properties=species:S:1:pos:R:3:forces:R:3 energy=-10.50861858799954 pbc="F F F"
Mo       0.00000000       0.00000000       0.00000000       0.00000000       0.00000000       3.61720824
Mo       0.00000000       0.00000000       2.59030303       0.00000000       0.00000000      -3.61720824
2
Properties=species:S:1:pos:R:3:forces:R:3 energy=-10.31344962191588 pbc="F F F"
Mo       0.00000000       0.00000000       0.00000000       0.00000000       0.00000000       2.99031281
Mo       0.00000000       0.00000000       2.64909091       0.00000000       0.00000000      -2.99031281
2
Properties=species:S:1:pos:R:3:forces:R:3 energy=-10.159732281374454 pbc="F F F"
Mo       0.00000000       0.00000000       0.00000000       0.00000000       0.00000000       2.22756529
Mo       0.00000000       0.00000000       2.70787879       0.00000000       0.00000000      -2.22756529
2
Properties=species:S:1:pos:R:3:forces:R:3 energy=-10.051455447329971 pbc="F F F"
Mo       0.00000000       0.00000000       0.00000000       0.00000000       0.00000000       1.46907735
Mo       0.00000000       0.00000000       2.76666667       0.00000000       0.00000000      -1.46907735
2
Properties=species:S:1:pos:R:3:forces:R:3 energy=-9.984241275034977 pbc="F F F"
Mo       0.00000000       0.00000000       0.00000000       0.00000000       0.00000000       0.84963048
Mo       0.00000000       0.00000000       2.82545455       0.00000000       0.00000000      -0.84963048
2
Properties=species:S:1:pos:R:3:forces:R:3 energy=-9.947178450567991 pbc="F F F"
Mo       0.00000000       0.00000000       0.00000000       0.00000000       0.00000000       0.45133761
Mo       0.00000000       0.00000000       2.88424242       0.00000000       0.00000000      -0.45133761
2
Properties=species:S:1:pos:R:3:forces:R:3 energy=-9.92654861624144 pbc="F F F"
Mo       0.00000000       0.00000000       0.00000000       0.00000000       0.00000000       0.28701508
Mo       0.00000000       0.00000000       2.94303030       0.00000000       0.00000000      -0.28701508
2
Properties=species:S:1:pos:R:3:forces:R:3 energy=-9.909800839419452 pbc="F F F"
Mo       0.00000000       0.00000000       0.00000000       0.00000000       0.00000000       0.30656028
Mo       0.00000000       0.00000000       3.00181818       0.00000000       0.00000000      -0.30656028
2
Properties=species:S:1:pos:R:3:forces:R:3 energy=-9.8886725065353 pbc="F F F"
Mo       0.00000000       0.00000000       0.00000000       0.00000000       0.00000000       0.41952357
Mo       0.00000000       0.00000000       3.06060606       0.00000000       0.00000000      -0.41952357
2
Properties=species:S:1:pos:R:3:forces:R:3 energy=-9.860480966350805 pbc="F F F"
Mo       0.00000000       0.00000000       0.00000000       0.00000000       0.00000000       0.53340036
Mo       0.00000000       0.00000000       3.11939394       0.00000000       0.00000000      -0.53340036
2
Properties=species:S:1:pos:R:3:forces:R:3 energy=-9.827150482693515 pbc="F F F"
Mo       0.00000000       0.00000000       0.00000000       0.00000000       0.00000000       0.58792710
Mo       0.00000000       0.00000000       3.17818182       0.00000000       0.00000000      -0.58792710
2
Properties=species:S:1:pos:R:3:forces:R:3 energy=-9.792880876418426 pbc="F F F"
Mo       0.00000000       0.00000000       0.00000000       0.00000000       0.00000000       0.56578058
Mo       0.00000000       0.00000000       3.23696970       0.00000000       0.00000000      -0.56578058
2
Properties=species:S:1:pos:R:3:forces:R:3 energy=-9.761790782592124 pbc="F F F"
Mo       0.00000000       0.00000000       0.00000000       0.00000000       0.00000000       0.48493013
Mo       0.00000000       0.00000000       3.29575758       0.00000000       0.00000000      -0.48493013
2
Properties=species:S:1:pos:R:3:forces:R:3 energy=-9.736289821042421 pbc="F F F"
Mo       0.00000000       0.00000000       0.00000000       0.00000000       0.00000000       0.38239580
Mo       0.00000000       0.00000000       3.35454545       0.00000000       0.00000000      -0.38239580
2
Properties=species:S:1:pos:R:3:forces:R:3 energy=-9.716511561726593 pbc="F F F"
Mo       0.00000000       0.00000000       0.00000000       0.00000000       0.00000000       0.29565606
Mo       0.00000000       0.00000000       3.41333333       0.00000000       0.00000000      -0.29565606
2
Properties=species:S:1:pos:R:3:forces:R:3 energy=-9.700741705753847 pbc="F F F"
Mo       0.00000000       0.00000000       0.00000000       0.00000000       0.00000000       0.24837819
Mo       0.00000000       0.00000000       3.47212121       0.00000000       0.00000000      -0.24837819
2
Properties=species:S:1:pos:R:3:forces:R:3 energy=-9.68643161387055 pbc="F F F"
Mo       0.00000000       0.00000000       0.00000000       0.00000000       0.00000000       0.24532323
Mo       0.00000000       0.00000000       3.53090909       0.00000000       0.00000000      -0.24532323
2
Properties=species:S:1:pos:R:3:forces:R:3 energy=-9.671228169384566 pbc="F F F"
Mo       0.00000000       0.00000000       0.00000000       0.00000000       0.00000000       0.27620733
Mo       0.00000000       0.00000000       3.58969697       0.00000000       0.00000000      -0.27620733
2
Properties=species:S:1:pos:R:3:forces:R:3 energy=-9.653623955646147 pbc="F F F"
Mo       0.00000000       0.00000000       0.00000000       0.00000000       0.00000000       0.32409900
Mo       0.00000000       0.00000000       3.64848485       0.00000000       0.00000000      -0.32409900
2
Properties=species:S:1:pos:R:3:forces:R:3 energy=-9.633101805735125 pbc="F F F"
Mo       0.00000000       0.00000000       0.00000000       0.00000000       0.00000000       0.37320042
Mo       0.00000000       0.00000000       3.70727273       0.00000000       0.00000000      -0.37320042
2
Properties=species:S:1:pos:R:3:forces:R:3 energy=-9.609929730804659 pbc="F F F"
Mo       0.00000000       0.00000000       0.00000000       0.00000000       0.00000000       0.41302085
Mo       0.00000000       0.00000000       3.76606061       0.00000000       0.00000000      -0.41302085
2
Properties=species:S:1:pos:R:3:forces:R:3 energy=-9.58481823089176 pbc="F F F"
Mo       0.00000000       0.00000000       0.00000000       0.00000000       0.00000000       0.43882415
Mo       0.00000000       0.00000000       3.82484848       0.00000000       0.00000000      -0.43882415
2
Properties=species:S:1:pos:R:3:forces:R:3 energy=-9.558622197329518 pbc="F F F"
Mo       0.00000000       0.00000000       0.00000000       0.00000000       0.00000000       0.45001242
Mo       0.00000000       0.00000000       3.88363636       0.00000000       0.00000000      -0.45001242
2
Properties=species:S:1:pos:R:3:forces:R:3 energy=-9.532162223861828 pbc="F F F"
Mo       0.00000000       0.00000000       0.00000000       0.00000000       0.00000000       0.44823804
Mo       0.00000000       0.00000000       3.94242424       0.00000000       0.00000000      -0.44823804
2
Properties=species:S:1:pos:R:3:forces:R:3 energy=-9.506124166729238 pbc="F F F"
Mo       0.00000000       0.00000000       0.00000000       0.00000000       0.00000000       0.43614262
Mo       0.00000000       0.00000000       4.00121212       0.00000000       0.00000000      -0.43614262
2
Properties=species:S:1:pos:R:3:forces:R:3 energy=-9.481026840119434 pbc="F F F"
Mo       0.00000000       0.00000000       0.00000000       0.00000000       0.00000000       0.41669449
Mo       0.00000000       0.00000000       4.06000000       0.00000000       0.00000000      -0.41669449
2
Properties=species:S:1:pos:R:3:forces:R:3 energy=-9.457216503197603 pbc="F F F"
Mo       0.00000000       0.00000000       0.00000000       0.00000000       0.00000000       0.39281565
Mo       0.00000000       0.00000000       4.11878788       0.00000000       0.00000000      -0.39281565
2
Properties=species:S:1:pos:R:3:forces:R:3 energy=-9.434877027406056 pbc="F F F"
Mo       0.00000000       0.00000000       0.00000000       0.00000000       0.00000000       0.36704525
Mo       0.00000000       0.00000000       4.17757576       0.00000000       0.00000000      -0.36704525
2
Properties=species:S:1:pos:R:3:forces:R:3 energy=-9.414060604111679 pbc="F F F"
Mo       0.00000000       0.00000000       0.00000000       0.00000000       0.00000000       0.34128296
Mo       0.00000000       0.00000000       4.23636364       0.00000000       0.00000000      -0.34128296
2
Properties=species:S:1:pos:R:3:forces:R:3 energy=-9.394727564508386 pbc="F F F"
Mo       0.00000000       0.00000000       0.00000000       0.00000000       0.00000000       0.31664777
Mo       0.00000000       0.00000000       4.29515152       0.00000000       0.00000000      -0.31664777
2
Properties=species:S:1:pos:R:3:forces:R:3 energy=-9.376799975448167 pbc="F F F"
Mo       0.00000000       0.00000000       0.00000000       0.00000000       0.00000000       0.29354700
Mo       0.00000000       0.00000000       4.35393939       0.00000000       0.00000000      -0.29354700
2
Properties=species:S:1:pos:R:3:forces:R:3 energy=-9.36018601048514 pbc="F F F"
Mo       0.00000000       0.00000000       0.00000000       0.00000000       0.00000000       0.27187583
Mo       0.00000000       0.00000000       4.41272727       0.00000000       0.00000000      -0.27187583
2
Properties=species:S:1:pos:R:3:forces:R:3 energy=-9.344812400144898 pbc="F F F"
Mo       0.00000000       0.00000000       0.00000000       0.00000000       0.00000000       0.25130042
Mo       0.00000000       0.00000000       4.47151515       0.00000000       0.00000000      -0.25130042
2
Properties=species:S:1:pos:R:3:forces:R:3 energy=-9.330623421229381 pbc="F F F"
Mo       0.00000000       0.00000000       0.00000000       0.00000000       0.00000000       0.23150961
Mo       0.00000000       0.00000000       4.53030303       0.00000000       0.00000000      -0.23150961
2
Properties=species:S:1:pos:R:3:forces:R:3 energy=-9.31758062438418 pbc="F F F"
Mo       0.00000000       0.00000000       0.00000000       0.00000000       0.00000000       0.21235324
Mo       0.00000000       0.00000000       4.58909091       0.00000000       0.00000000      -0.21235324
2
Properties=species:S:1:pos:R:3:forces:R:3 energy=-9.30564363389932 pbc="F F F"
Mo       0.00000000       0.00000000       0.00000000       0.00000000       0.00000000       0.19385490
Mo       0.00000000       0.00000000       4.64787879       0.00000000       0.00000000      -0.19385490
2
Properties=species:S:1:pos:R:3:forces:R:3 energy=-9.294771979030164 pbc="F F F"
Mo       0.00000000       0.00000000       0.00000000       0.00000000       0.00000000       0.17611685
Mo       0.00000000       0.00000000       4.70666667       0.00000000       0.00000000      -0.17611685
2
Properties=species:S:1:pos:R:3:forces:R:3 energy=-9.284920116549563 pbc="F F F"
Mo       0.00000000       0.00000000       0.00000000       0.00000000       0.00000000       0.15919283
Mo       0.00000000       0.00000000       4.76545455       0.00000000       0.00000000      -0.15919283
2
Properties=species:S:1:pos:R:3:forces:R:3 energy=-9.276040209407434 pbc="F F F"
Mo       0.00000000       0.00000000       0.00000000       0.00000000       0.00000000       0.14303385
Mo       0.00000000       0.00000000       4.82424242       0.00000000       0.00000000      -0.14303385
2
Properties=species:S:1:pos:R:3:forces:R:3 energy=-9.26808965475498 pbc="F F F"
Mo       0.00000000       0.00000000       0.00000000       0.00000000       0.00000000       0.12757185
Mo       0.00000000       0.00000000       4.88303030       0.00000000       0.00000000      -0.12757185
2
Properties=species:S:1:pos:R:3:forces:R:3 energy=-9.26102520984334 pbc="F F F"
Mo       0.00000000       0.00000000       0.00000000       0.00000000       0.00000000       0.11290956
Mo       0.00000000       0.00000000       4.94181818       0.00000000       0.00000000      -0.11290956
2
Properties=species:S:1:pos:R:3:forces:R:3 energy=-9.254789627911844 pbc="F F F"
Mo       0.00000000       0.00000000       0.00000000       0.00000000       0.00000000       0.09948088
Mo       0.00000000       0.00000000       5.00060606       0.00000000       0.00000000      -0.09948088
2
Properties=species:S:1:pos:R:3:forces:R:3 energy=-9.249291634195224 pbc="F F F"
Mo       0.00000000       0.00000000       0.00000000       0.00000000       0.00000000       0.08791910
Mo       0.00000000       0.00000000       5.05939394       0.00000000       0.00000000      -0.08791910
2
Properties=species:S:1:pos:R:3:forces:R:3 energy=-9.244411521256598 pbc="F F F"
Mo       0.00000000       0.00000000       0.00000000       0.00000000       0.00000000       0.07843285
Mo       0.00000000       0.00000000       5.11818182       0.00000000       0.00000000      -0.07843285
2
Properties=species:S:1:pos:R:3:forces:R:3 energy=-9.240048886556284 pbc="F F F"
Mo       0.00000000       0.00000000       0.00000000       0.00000000       0.00000000       0.06997085
Mo       0.00000000       0.00000000       5.17696970       0.00000000       0.00000000      -0.06997085
2
Properties=species:S:1:pos:R:3:forces:R:3 energy=-9.236206574798574 pbc="F F F"
Mo       0.00000000       0.00000000       0.00000000       0.00000000       0.00000000       0.06041716
Mo       0.00000000       0.00000000       5.23575758       0.00000000       0.00000000      -0.06041716
2
Properties=species:S:1:pos:R:3:forces:R:3 energy=-9.232983051705016 pbc="F F F"
Mo       0.00000000       0.00000000       0.00000000       0.00000000       0.00000000       0.04908849
Mo       0.00000000       0.00000000       5.29454545       0.00000000       0.00000000      -0.04908849
2
Properties=species:S:1:pos:R:3:forces:R:3 energy=-9.230415145954705 pbc="F F F"
Mo       0.00000000       0.00000000       0.00000000       0.00000000       0.00000000       0.03878384
Mo       0.00000000       0.00000000       5.35333333       0.00000000       0.00000000      -0.03878384
2
Properties=species:S:1:pos:R:3:forces:R:3 energy=-9.228340666229736 pbc="F F F"
Mo       0.00000000       0.00000000       0.00000000       0.00000000       0.00000000       0.03251421
Mo       0.00000000       0.00000000       5.41212121       0.00000000       0.00000000      -0.03251421
2
Properties=species:S:1:pos:R:3:forces:R:3 energy=-9.226537802392155 pbc="F F F"
Mo       0.00000000       0.00000000       0.00000000       0.00000000       0.00000000       0.02894876
Mo       0.00000000       0.00000000       5.47090909       0.00000000       0.00000000      -0.02894876
2
Properties=species:S:1:pos:R:3:forces:R:3 energy=-9.22497020077634 pbc="F F F"
Mo       0.00000000       0.00000000       0.00000000       0.00000000       0.00000000       0.02379445
Mo       0.00000000       0.00000000       5.52969697       0.00000000       0.00000000      -0.02379445
2
Properties=species:S:1:pos:R:3:forces:R:3 energy=-9.223817557794861 pbc="F F F"
Mo       0.00000000       0.00000000       0.00000000       0.00000000       0.00000000       0.01489997
Mo       0.00000000       0.00000000       5.58848485       0.00000000       0.00000000      -0.01489997
2
Properties=species:S:1:pos:R:3:forces:R:3 energy=-9.22322110927324 pbc="F F F"
Mo       0.00000000       0.00000000       0.00000000       0.00000000       0.00000000       0.00596420
Mo       0.00000000       0.00000000       5.64727273       0.00000000       0.00000000      -0.00596420
2
Properties=species:S:1:pos:R:3:forces:R:3 energy=-9.222985089207224 pbc="F F F"
Mo       0.00000000       0.00000000       0.00000000       0.00000000       0.00000000       0.00347294
Mo       0.00000000       0.00000000       5.70606061       0.00000000       0.00000000      -0.00347294
2
Properties=species:S:1:pos:R:3:forces:R:3 energy=-9.222673149071232 pbc="F F F"
Mo       0.00000000       0.00000000       0.00000000       0.00000000       0.00000000       0.00791952
Mo       0.00000000       0.00000000       5.76484848       0.00000000       0.00000000      -0.00791952
2
Properties=species:S:1:pos:R:3:forces:R:3 energy=-9.222039532650971 pbc="F F F"
Mo       0.00000000       0.00000000       0.00000000       0.00000000       0.00000000       0.01323214
Mo       0.00000000       0.00000000       5.82363636       0.00000000       0.00000000      -0.01323214
2
Properties=species:S:1:pos:R:3:forces:R:3 energy=-9.221182535244994 pbc="F F F"
Mo       0.00000000       0.00000000       0.00000000       0.00000000       0.00000000       0.01536905
Mo       0.00000000       0.00000000       5.88242424       0.00000000       0.00000000      -0.01536905
2
Properties=species:S:1:pos:R:3:forces:R:3 energy=-9.22027856474678 pbc="F F F"
Mo       0.00000000       0.00000000       0.00000000       0.00000000       0.00000000       0.01515190
Mo       0.00000000       0.00000000       5.94121212       0.00000000       0.00000000      -0.01515190
2
Properties=species:S:1:pos:R:3:forces:R:3 energy=-9.219410488187338 pbc="F F F"
Mo       0.00000000       0.00000000       0.00000000       0.00000000       0.00000000       0.01437535
Mo       0.00000000       0.00000000       6.00000000       0.00000000       0.00000000      -0.01437535
