2
Properties=species:S:1:pos:R:3:forces:R:3 energy=1679.6577589208828 pbc="F F F"
N        0.00000000       0.00000000       0.00000000       0.00000000       0.00000000  -31803.21875000
N        0.00000000       0.00000000       0.10000000       0.00000000       0.00000000   31803.21875000
2
Properties=species:S:1:pos:R:3:forces:R:3 energy=649.0221388036953 pbc="F F F"
N        0.00000000       0.00000000       0.00000000       0.00000000       0.00000000   -8826.58398438
N        0.00000000       0.00000000       0.15959596       0.00000000       0.00000000    8826.58398438
2
Properties=species:S:1:pos:R:3:forces:R:3 energy=319.6132948095547 pbc="F F F"
N        0.00000000       0.00000000       0.00000000       0.00000000       0.00000000   -3300.91186523
N        0.00000000       0.00000000       0.21919192       0.00000000       0.00000000    3300.91186523
2
Properties=species:S:1:pos:R:3:forces:R:3 energy=187.83727857578702 pbc="F F F"
N        0.00000000       0.00000000       0.00000000       0.00000000       0.00000000   -1415.07507324
N        0.00000000       0.00000000       0.27878788       0.00000000       0.00000000    1415.07507324
2
Properties=species:S:1:pos:R:3:forces:R:3 energy=129.8596937432555 pbc="F F F"
N        0.00000000       0.00000000       0.00000000       0.00000000       0.00000000    -637.26696777
N        0.00000000       0.00000000       0.33838384       0.00000000       0.00000000     637.26696777
2
Properties=species:S:1:pos:R:3:forces:R:3 energy=103.51531814557522 pbc="F F F"
N        0.00000000       0.00000000       0.00000000       0.00000000       0.00000000    -295.00793457
N        0.00000000       0.00000000       0.39797980       0.00000000       0.00000000     295.00793457
2
Properties=species:S:1:pos:R:3:forces:R:3 energy=89.72843005073507 pbc="F F F"
N        0.00000000       0.00000000       0.00000000       0.00000000       0.00000000    -205.16287231
N        0.00000000       0.00000000       0.45757576       0.00000000       0.00000000     205.16287231
2
Properties=species:S:1:pos:R:3:forces:R:3 energy=75.75262291385468 pbc="F F F"
N        0.00000000       0.00000000       0.00000000       0.00000000       0.00000000    -277.35540771
N        0.00000000       0.00000000       0.51717172       0.00000000       0.00000000     277.35540771
2
Properties=species:S:1:pos:R:3:forces:R:3 energy=56.78405611277418 pbc="F F F"
N        0.00000000       0.00000000       0.00000000       0.00000000       0.00000000    -346.60916138
N        0.00000000       0.00000000       0.57676768       0.00000000       0.00000000     346.60916138
2
Properties=species:S:1:pos:R:3:forces:R:3 energy=36.52906664555794 pbc="F F F"
N        0.00000000       0.00000000       0.00000000       0.00000000       0.00000000    -317.86401367
N        0.00000000       0.00000000       0.63636364       0.00000000       0.00000000     317.86401367
2
Properties=species:S:1:pos:R:3:forces:R:3 energy=19.619047978085277 pbc="F F F"
N        0.00000000       0.00000000       0.00000000       0.00000000       0.00000000    -248.76336670
N        0.00000000       0.00000000       0.69595960       0.00000000       0.00000000     248.76336670
2
Properties=species:S:1:pos:R:3:forces:R:3 energy=6.944027671410824 pbc="F F F"
N        0.00000000       0.00000000       0.00000000       0.00000000       0.00000000    -177.47874451
N        0.00000000       0.00000000       0.75555556       0.00000000       0.00000000     177.47874451
2
Properties=species:S:1:pos:R:3:forces:R:3 energy=-1.9354983640205454 pbc="F F F"
N        0.00000000       0.00000000       0.00000000       0.00000000       0.00000000    -125.54827881
N        0.00000000       0.00000000       0.81515152       0.00000000       0.00000000     125.54827881
2
Properties=species:S:1:pos:R:3:forces:R:3 energy=-8.35402322193237 pbc="F F F"
N        0.00000000       0.00000000       0.00000000       0.00000000       0.00000000     -89.70523834
N        0.00000000       0.00000000       0.87474747       0.00000000       0.00000000      89.70523834
2
Properties=species:S:1:pos:R:3:forces:R:3 energy=-12.628532423148709 pbc="F F F"
N        0.00000000       0.00000000       0.00000000       0.00000000       0.00000000     -54.56011200
N        0.00000000       0.00000000       0.93434343       0.00000000       0.00000000      54.56011200
2
Properties=species:S:1:pos:R:3:forces:R:3 energy=-15.027853299110062 pbc="F F F"
N        0.00000000       0.00000000       0.00000000       0.00000000       0.00000000     -27.77122879
N        0.00000000       0.00000000       0.99393939       0.00000000       0.00000000      27.77122879
2
Properties=species:S:1:pos:R:3:forces:R:3 energy=-16.140586833093394 pbc="F F F"
N        0.00000000       0.00000000       0.00000000       0.00000000       0.00000000     -10.91012287
N        0.00000000       0.00000000       1.05353535       0.00000000       0.00000000      10.91012287
2
Properties=species:S:1:pos:R:3:forces:R:3 energy=-16.443400270090454 pbc="F F F"
N        0.00000000       0.00000000       0.00000000       0.00000000       0.00000000       0.02676095
N        0.00000000       0.00000000       1.11313131       0.00000000       0.00000000      -0.02676095
2
Properties=species:S:1:pos:R:3:forces:R:3 energy=-16.21220477179951 pbc="F F F"
N        0.00000000       0.00000000       0.00000000       0.00000000       0.00000000       7.16785049
N        0.00000000       0.00000000       1.17272727       0.00000000       0.00000000      -7.16785049
2
Properties=species:S:1:pos:R:3:forces:R:3 energy=-15.648276914654746 pbc="F F F"
N        0.00000000       0.00000000       0.00000000       0.00000000       0.00000000      11.33397961
N        0.00000000       0.00000000       1.23232323       0.00000000       0.00000000     -11.33397961
2
Properties=species:S:1:pos:R:3:forces:R:3 energy=-14.902243641649486 pbc="F F F"
N        0.00000000       0.00000000       0.00000000       0.00000000       0.00000000      13.44036293
N        0.00000000       0.00000000       1.29191919       0.00000000       0.00000000     -13.44036293
2
Properties=species:S:1:pos:R:3:forces:R:3 energy=-14.068627285636065 pbc="F F F"
N        0.00000000       0.00000000       0.00000000       0.00000000       0.00000000      14.40663719
N        0.00000000       0.00000000       1.35151515       0.00000000       0.00000000     -14.40663719
2
Properties=species:S:1:pos:R:3:forces:R:3 energy=-13.197415630079766 pbc="F F F"
N        0.00000000       0.00000000       0.00000000       0.00000000       0.00000000      14.73149967
N        0.00000000       0.00000000       1.41111111       0.00000000       0.00000000     -14.73149967
2
Properties=species:S:1:pos:R:3:forces:R:3 energy=-12.325773649778844 pbc="F F F"
N        0.00000000       0.00000000       0.00000000       0.00000000       0.00000000      14.40360451
N        0.00000000       0.00000000       1.47070707       0.00000000       0.00000000     -14.40360451
2
Properties=species:S:1:pos:R:3:forces:R:3 energy=-11.494361111253168 pbc="F F F"
N        0.00000000       0.00000000       0.00000000       0.00000000       0.00000000      13.39534855
N        0.00000000       0.00000000       1.53030303       0.00000000       0.00000000     -13.39534855
2
Properties=species:S:1:pos:R:3:forces:R:3 energy=-10.738263578242027 pbc="F F F"
N        0.00000000       0.00000000       0.00000000       0.00000000       0.00000000      11.93352032
N        0.00000000       0.00000000       1.58989899       0.00000000       0.00000000     -11.93352032
2
Properties=species:S:1:pos:R:3:forces:R:3 energy=-10.07356499632736 pbc="F F F"
N        0.00000000       0.00000000       0.00000000       0.00000000       0.00000000      10.38978386
N        0.00000000       0.00000000       1.64949495       0.00000000       0.00000000     -10.38978386
2
Properties=species:S:1:pos:R:3:forces:R:3 energy=-9.49518162928903 pbc="F F F"
N        0.00000000       0.00000000       0.00000000       0.00000000       0.00000000       9.07589245
N        0.00000000       0.00000000       1.70909091       0.00000000       0.00000000      -9.07589245
2
Properties=species:S:1:pos:R:3:forces:R:3 energy=-8.984469401263382 pbc="F F F"
N        0.00000000       0.00000000       0.00000000       0.00000000       0.00000000       8.12455559
N        0.00000000       0.00000000       1.76868687       0.00000000       0.00000000      -8.12455559
2
Properties=species:S:1:pos:R:3:forces:R:3 energy=-8.520346478152605 pbc="F F F"
N        0.00000000       0.00000000       0.00000000       0.00000000       0.00000000       7.49546051
N        0.00000000       0.00000000       1.82828283       0.00000000       0.00000000      -7.49546051
2
Properties=species:S:1:pos:R:3:forces:R:3 energy=-8.087251547640687 pbc="F F F"
N        0.00000000       0.00000000       0.00000000       0.00000000       0.00000000       7.05743361
N        0.00000000       0.00000000       1.88787879       0.00000000       0.00000000      -7.05743361
2
Properties=species:S:1:pos:R:3:forces:R:3 energy=-7.678688706528702 pbc="F F F"
N        0.00000000       0.00000000       0.00000000       0.00000000       0.00000000       6.64332485
N        0.00000000       0.00000000       1.94747475       0.00000000       0.00000000      -6.64332485
2
Properties=species:S:1:pos:R:3:forces:R:3 energy=-7.2980438544613335 pbc="F F F"
N        0.00000000       0.00000000       0.00000000       0.00000000       0.00000000       6.09990263
N        0.00000000       0.00000000       2.00707071       0.00000000       0.00000000      -6.09990263
2
Properties=species:S:1:pos:R:3:forces:R:3 energy=-6.955740869235722 pbc="F F F"
N        0.00000000       0.00000000       0.00000000       0.00000000       0.00000000       5.35320950
N        0.00000000       0.00000000       2.06666667       0.00000000       0.00000000      -5.35320950
2
Properties=species:S:1:pos:R:3:forces:R:3 energy=-6.6635320794104675 pbc="F F F"
N        0.00000000       0.00000000       0.00000000       0.00000000       0.00000000       4.43051052
N        0.00000000       0.00000000       2.12626263       0.00000000       0.00000000      -4.43051052
2
Properties=species:S:1:pos:R:3:forces:R:3 energy=-6.429242991162254 pbc="F F F"
N        0.00000000       0.00000000       0.00000000       0.00000000       0.00000000       3.42863798
N        0.00000000       0.00000000       2.18585859       0.00000000       0.00000000      -3.42863798
2
Properties=species:S:1:pos:R:3:forces:R:3 energy=-6.254150711547025 pbc="F F F"
N        0.00000000       0.00000000       0.00000000       0.00000000       0.00000000       2.46173143
N        0.00000000       0.00000000       2.24545455       0.00000000       0.00000000      -2.46173143
2
Properties=species:S:1:pos:R:3:forces:R:3 energy=-6.133334167755264 pbc="F F F"
N        0.00000000       0.00000000       0.00000000       0.00000000       0.00000000       1.61849630
N        0.00000000       0.00000000       2.30505051       0.00000000       0.00000000      -1.61849630
2
Properties=species:S:1:pos:R:3:forces:R:3 energy=-6.057873489154595 pbc="F F F"
N        0.00000000       0.00000000       0.00000000       0.00000000       0.00000000       0.94328201
N        0.00000000       0.00000000       2.36464646       0.00000000       0.00000000      -0.94328201
2
Properties=species:S:1:pos:R:3:forces:R:3 energy=-6.0174746184752275 pbc="F F F"
N        0.00000000       0.00000000       0.00000000       0.00000000       0.00000000       0.43984577
N        0.00000000       0.00000000       2.42424242       0.00000000       0.00000000      -0.43984577
2
Properties=species:S:1:pos:R:3:forces:R:3 energy=-6.002450456792801 pbc="F F F"
N        0.00000000       0.00000000       0.00000000       0.00000000       0.00000000       0.08699747
N        0.00000000       0.00000000       2.48383838       0.00000000       0.00000000      -0.08699747
2
Properties=species:S:1:pos:R:3:forces:R:3 energy=-6.004718310956805 pbc="F F F"
N        0.00000000       0.00000000       0.00000000       0.00000000       0.00000000      -0.14565364
N        0.00000000       0.00000000       2.54343434       0.00000000       0.00000000       0.14565364
2
Properties=species:S:1:pos:R:3:forces:R:3 energy=-6.018015161768869 pbc="F F F"
N        0.00000000       0.00000000       0.00000000       0.00000000       0.00000000      -0.28770715
N        0.00000000       0.00000000       2.60303030       0.00000000       0.00000000       0.28770715
2
Properties=species:S:1:pos:R:3:forces:R:3 energy=-6.037707995251493 pbc="F F F"
N        0.00000000       0.00000000       0.00000000       0.00000000       0.00000000      -0.36398467
N        0.00000000       0.00000000       2.66262626       0.00000000       0.00000000       0.36398467
2
Properties=species:S:1:pos:R:3:forces:R:3 energy=-6.060483947986189 pbc="F F F"
N        0.00000000       0.00000000       0.00000000       0.00000000       0.00000000      -0.39401922
N        0.00000000       0.00000000       2.72222222       0.00000000       0.00000000       0.39401922
2
Properties=species:S:1:pos:R:3:forces:R:3 energy=-6.084053293792762 pbc="F F F"
N        0.00000000       0.00000000       0.00000000       0.00000000       0.00000000      -0.39280033
N        0.00000000       0.00000000       2.78181818       0.00000000       0.00000000       0.39280033
2
Properties=species:S:1:pos:R:3:forces:R:3 energy=-6.106907729263744 pbc="F F F"
N        0.00000000       0.00000000       0.00000000       0.00000000       0.00000000      -0.37163284
N        0.00000000       0.00000000       2.84141414       0.00000000       0.00000000       0.37163284
2
Properties=species:S:1:pos:R:3:forces:R:3 energy=-6.12812012750053 pbc="F F F"
N        0.00000000       0.00000000       0.00000000       0.00000000       0.00000000      -0.33885121
N        0.00000000       0.00000000       2.90101010       0.00000000       0.00000000       0.33885121
2
Properties=species:S:1:pos:R:3:forces:R:3 energy=-6.147185739460356 pbc="F F F"
N        0.00000000       0.00000000       0.00000000       0.00000000       0.00000000      -0.30042464
N        0.00000000       0.00000000       2.96060606       0.00000000       0.00000000       0.30042464
2
Properties=species:S:1:pos:R:3:forces:R:3 energy=-6.163898213919309 pbc="F F F"
N        0.00000000       0.00000000       0.00000000       0.00000000       0.00000000      -0.26047081
N        0.00000000       0.00000000       3.02020202       0.00000000       0.00000000       0.26047081
2
Properties=species:S:1:pos:R:3:forces:R:3 energy=-6.178255139365483 pbc="F F F"
N        0.00000000       0.00000000       0.00000000       0.00000000       0.00000000      -0.22170819
N        0.00000000       0.00000000       3.07979798       0.00000000       0.00000000       0.22170819
2
Properties=species:S:1:pos:R:3:forces:R:3 energy=-6.190382169870032 pbc="F F F"
N        0.00000000       0.00000000       0.00000000       0.00000000       0.00000000      -0.18582495
N        0.00000000       0.00000000       3.13939394       0.00000000       0.00000000       0.18582495
2
Properties=species:S:1:pos:R:3:forces:R:3 energy=-6.200480973809197 pbc="F F F"
N        0.00000000       0.00000000       0.00000000       0.00000000       0.00000000      -0.15376866
N        0.00000000       0.00000000       3.19898990       0.00000000       0.00000000       0.15376866
2
Properties=species:S:1:pos:R:3:forces:R:3 energy=-6.208794815265752 pbc="F F F"
N        0.00000000       0.00000000       0.00000000       0.00000000       0.00000000      -0.12596259
N        0.00000000       0.00000000       3.25858586       0.00000000       0.00000000       0.12596259
2
Properties=species:S:1:pos:R:3:forces:R:3 energy=-6.215580330353748 pbc="F F F"
N        0.00000000       0.00000000       0.00000000       0.00000000       0.00000000      -0.10246721
N        0.00000000       0.00000000       3.31818182       0.00000000       0.00000000       0.10246721
2
Properties=species:S:1:pos:R:3:forces:R:3 energy=-6.221089793960724 pbc="F F F"
N        0.00000000       0.00000000       0.00000000       0.00000000       0.00000000      -0.08309335
N        0.00000000       0.00000000       3.37777778       0.00000000       0.00000000       0.08309335
2
Properties=species:S:1:pos:R:3:forces:R:3 energy=-6.225559584185047 pbc="F F F"
N        0.00000000       0.00000000       0.00000000       0.00000000       0.00000000      -0.06748191
N        0.00000000       0.00000000       3.43737374       0.00000000       0.00000000       0.06748191
2
Properties=species:S:1:pos:R:3:forces:R:3 energy=-6.229198667760071 pbc="F F F"
N        0.00000000       0.00000000       0.00000000       0.00000000       0.00000000      -0.05516482
N        0.00000000       0.00000000       3.49696970       0.00000000       0.00000000       0.05516482
2
Properties=species:S:1:pos:R:3:forces:R:3 energy=-6.232189504627212 pbc="F F F"
N        0.00000000       0.00000000       0.00000000       0.00000000       0.00000000      -0.04560491
N        0.00000000       0.00000000       3.55656566       0.00000000       0.00000000       0.04560491
2
Properties=species:S:1:pos:R:3:forces:R:3 energy=-6.234677512377 pbc="F F F"
N        0.00000000       0.00000000       0.00000000       0.00000000       0.00000000      -0.03823505
N        0.00000000       0.00000000       3.61616162       0.00000000       0.00000000       0.03823505
2
Properties=species:S:1:pos:R:3:forces:R:3 energy=-6.236779155057748 pbc="F F F"
N        0.00000000       0.00000000       0.00000000       0.00000000       0.00000000      -0.03249301
N        0.00000000       0.00000000       3.67575758       0.00000000       0.00000000       0.03249301
2
Properties=species:S:1:pos:R:3:forces:R:3 energy=-6.238572876933903 pbc="F F F"
N        0.00000000       0.00000000       0.00000000       0.00000000       0.00000000      -0.02786188
N        0.00000000       0.00000000       3.73535354       0.00000000       0.00000000       0.02786188
2
Properties=species:S:1:pos:R:3:forces:R:3 energy=-6.240113430171519 pbc="F F F"
N        0.00000000       0.00000000       0.00000000       0.00000000       0.00000000      -0.02390715
N        0.00000000       0.00000000       3.79494949       0.00000000       0.00000000       0.02390715
2
Properties=species:S:1:pos:R:3:forces:R:3 energy=-6.241429504907673 pbc="F F F"
N        0.00000000       0.00000000       0.00000000       0.00000000       0.00000000      -0.02031666
N        0.00000000       0.00000000       3.85454545       0.00000000       0.00000000       0.02031666
2
Properties=species:S:1:pos:R:3:forces:R:3 energy=-6.2425385440685215 pbc="F F F"
N        0.00000000       0.00000000       0.00000000       0.00000000       0.00000000      -0.01691495
N        0.00000000       0.00000000       3.91414141       0.00000000       0.00000000       0.01691495
2
Properties=species:S:1:pos:R:3:forces:R:3 energy=-6.243448689127775 pbc="F F F"
N        0.00000000       0.00000000       0.00000000       0.00000000       0.00000000      -0.01367019
N        0.00000000       0.00000000       3.97373737       0.00000000       0.00000000       0.01367019
2
Properties=species:S:1:pos:R:3:forces:R:3 energy=-6.244172167977084 pbc="F F F"
N        0.00000000       0.00000000       0.00000000       0.00000000       0.00000000      -0.01064718
N        0.00000000       0.00000000       4.03333333       0.00000000       0.00000000       0.01064718
2
Properties=species:S:1:pos:R:3:forces:R:3 energy=-6.244724377681677 pbc="F F F"
N        0.00000000       0.00000000       0.00000000       0.00000000       0.00000000      -0.00796138
N        0.00000000       0.00000000       4.09292929       0.00000000       0.00000000       0.00796138
2
Properties=species:S:1:pos:R:3:forces:R:3 energy=-6.2451291677029666 pbc="F F F"
N        0.00000000       0.00000000       0.00000000       0.00000000       0.00000000      -0.00570116
N        0.00000000       0.00000000       4.15252525       0.00000000       0.00000000       0.00570116
2
Properties=species:S:1:pos:R:3:forces:R:3 energy=-6.245412669129915 pbc="F F F"
N        0.00000000       0.00000000       0.00000000       0.00000000       0.00000000      -0.00387368
N        0.00000000       0.00000000       4.21212121       0.00000000       0.00000000       0.00387368
2
Properties=species:S:1:pos:R:3:forces:R:3 energy=-6.2455976023314665 pbc="F F F"
N        0.00000000       0.00000000       0.00000000       0.00000000       0.00000000      -0.00237792
N        0.00000000       0.00000000       4.27171717       0.00000000       0.00000000       0.00237792
2
Properties=species:S:1:pos:R:3:forces:R:3 energy=-6.245699009774758 pbc="F F F"
N        0.00000000       0.00000000       0.00000000       0.00000000       0.00000000      -0.00102563
N        0.00000000       0.00000000       4.33131313       0.00000000       0.00000000       0.00102563
2
Properties=species:S:1:pos:R:3:forces:R:3 energy=-6.245718557737887 pbc="F F F"
N        0.00000000       0.00000000       0.00000000       0.00000000       0.00000000       0.00040515
N        0.00000000       0.00000000       4.39090909       0.00000000       0.00000000      -0.00040515
2
Properties=species:S:1:pos:R:3:forces:R:3 energy=-6.24564550166557 pbc="F F F"
N        0.00000000       0.00000000       0.00000000       0.00000000       0.00000000       0.00209609
N        0.00000000       0.00000000       4.45050505       0.00000000       0.00000000      -0.00209609
2
Properties=species:S:1:pos:R:3:forces:R:3 energy=-6.245461949790851 pbc="F F F"
N        0.00000000       0.00000000       0.00000000       0.00000000       0.00000000       0.00412199
N        0.00000000       0.00000000       4.51010101       0.00000000       0.00000000      -0.00412199
2
Properties=species:S:1:pos:R:3:forces:R:3 energy=-6.245149062612124 pbc="F F F"
N        0.00000000       0.00000000       0.00000000       0.00000000       0.00000000       0.00640382
N        0.00000000       0.00000000       4.56969697       0.00000000       0.00000000      -0.00640382
2
Properties=species:S:1:pos:R:3:forces:R:3 energy=-6.244698042421521 pbc="F F F"
N        0.00000000       0.00000000       0.00000000       0.00000000       0.00000000       0.00869900
N        0.00000000       0.00000000       4.62929293       0.00000000       0.00000000      -0.00869900
2
Properties=species:S:1:pos:R:3:forces:R:3 energy=-6.244119186776281 pbc="F F F"
N        0.00000000       0.00000000       0.00000000       0.00000000       0.00000000       0.01064955
N        0.00000000       0.00000000       4.68888889       0.00000000       0.00000000      -0.01064955
2
Properties=species:S:1:pos:R:3:forces:R:3 energy=-6.243443808122689 pbc="F F F"
N        0.00000000       0.00000000       0.00000000       0.00000000       0.00000000       0.01184663
N        0.00000000       0.00000000       4.74848485       0.00000000       0.00000000      -0.01184663
2
Properties=species:S:1:pos:R:3:forces:R:3 energy=-6.242728995535036 pbc="F F F"
N        0.00000000       0.00000000       0.00000000       0.00000000       0.00000000       0.01195841
N        0.00000000       0.00000000       4.80808081       0.00000000       0.00000000      -0.01195841
2
Properties=species:S:1:pos:R:3:forces:R:3 energy=-6.242042844445056 pbc="F F F"
N        0.00000000       0.00000000       0.00000000       0.00000000       0.00000000       0.01085674
N        0.00000000       0.00000000       4.86767677       0.00000000       0.00000000      -0.01085674
2
Properties=species:S:1:pos:R:3:forces:R:3 energy=-6.24145539119223 pbc="F F F"
N        0.00000000       0.00000000       0.00000000       0.00000000       0.00000000       0.00871951
N        0.00000000       0.00000000       4.92727273       0.00000000       0.00000000      -0.00871951
2
Properties=species:S:1:pos:R:3:forces:R:3 energy=-6.241014293635761 pbc="F F F"
N        0.00000000       0.00000000       0.00000000       0.00000000       0.00000000       0.00605449
N        0.00000000       0.00000000       4.98686869       0.00000000       0.00000000      -0.00605449
2
Properties=species:S:1:pos:R:3:forces:R:3 energy=-6.240731006638769 pbc="F F F"
N        0.00000000       0.00000000       0.00000000       0.00000000       0.00000000       0.00353909
N        0.00000000       0.00000000       5.04646465       0.00000000       0.00000000      -0.00353909
2
Properties=species:S:1:pos:R:3:forces:R:3 energy=-6.24058029790555 pbc="F F F"
N        0.00000000       0.00000000       0.00000000       0.00000000       0.00000000       0.00161300
N        0.00000000       0.00000000       5.10606061       0.00000000       0.00000000      -0.00161300
2
Properties=species:S:1:pos:R:3:forces:R:3 energy=-6.2405336306414165 pbc="F F F"
N        0.00000000       0.00000000       0.00000000       0.00000000       0.00000000      -0.00009741
N        0.00000000       0.00000000       5.16565657       0.00000000       0.00000000       0.00009741
2
Properties=species:S:1:pos:R:3:forces:R:3 energy=-6.240613996361092 pbc="F F F"
N        0.00000000       0.00000000       0.00000000       0.00000000       0.00000000      -0.00292266
N        0.00000000       0.00000000       5.22525253       0.00000000       0.00000000       0.00292266
2
Properties=species:S:1:pos:R:3:forces:R:3 energy=-6.240924998639042 pbc="F F F"
N        0.00000000       0.00000000       0.00000000       0.00000000       0.00000000      -0.00781891
N        0.00000000       0.00000000       5.28484848       0.00000000       0.00000000       0.00781891
2
Properties=species:S:1:pos:R:3:forces:R:3 energy=-6.241556440193605 pbc="F F F"
N        0.00000000       0.00000000       0.00000000       0.00000000       0.00000000      -0.01314614
N        0.00000000       0.00000000       5.34444444       0.00000000       0.00000000       0.01314614
2
Properties=species:S:1:pos:R:3:forces:R:3 energy=-6.242425533192975 pbc="F F F"
N        0.00000000       0.00000000       0.00000000       0.00000000       0.00000000      -0.01522497
N        0.00000000       0.00000000       5.40404040       0.00000000       0.00000000       0.01522497
2
Properties=species:S:1:pos:R:3:forces:R:3 energy=-6.24327308337 pbc="F F F"
N        0.00000000       0.00000000       0.00000000       0.00000000       0.00000000      -0.01254916
N        0.00000000       0.00000000       5.46363636       0.00000000       0.00000000       0.01254916
2
Properties=species:S:1:pos:R:3:forces:R:3 energy=-6.243886170450708 pbc="F F F"
N        0.00000000       0.00000000       0.00000000       0.00000000       0.00000000      -0.00818239
N        0.00000000       0.00000000       5.52323232       0.00000000       0.00000000       0.00818239
2
Properties=species:S:1:pos:R:3:forces:R:3 energy=-6.244316539523266 pbc="F F F"
N        0.00000000       0.00000000       0.00000000       0.00000000       0.00000000      -0.00714142
N        0.00000000       0.00000000       5.58282828       0.00000000       0.00000000       0.00714142
2
Properties=species:S:1:pos:R:3:forces:R:3 energy=-6.244850079698064 pbc="F F F"
N        0.00000000       0.00000000       0.00000000       0.00000000       0.00000000      -0.01154776
N        0.00000000       0.00000000       5.64242424       0.00000000       0.00000000       0.01154776
2
Properties=species:S:1:pos:R:3:forces:R:3 energy=-6.245735504754644 pbc="F F F"
N        0.00000000       0.00000000       0.00000000       0.00000000       0.00000000      -0.01796570
N        0.00000000       0.00000000       5.70202020       0.00000000       0.00000000       0.01796570
2
Properties=species:S:1:pos:R:3:forces:R:3 energy=-6.246908262298721 pbc="F F F"
N        0.00000000       0.00000000       0.00000000       0.00000000       0.00000000      -0.02039798
N        0.00000000       0.00000000       5.76161616       0.00000000       0.00000000       0.02039798
2
Properties=species:S:1:pos:R:3:forces:R:3 energy=-6.248035353930691 pbc="F F F"
N        0.00000000       0.00000000       0.00000000       0.00000000       0.00000000      -0.01641460
N        0.00000000       0.00000000       5.82121212       0.00000000       0.00000000       0.01641460
2
Properties=species:S:1:pos:R:3:forces:R:3 energy=-6.248789040789138 pbc="F F F"
N        0.00000000       0.00000000       0.00000000       0.00000000       0.00000000      -0.00877144
N        0.00000000       0.00000000       5.88080808       0.00000000       0.00000000       0.00877144
2
Properties=species:S:1:pos:R:3:forces:R:3 energy=-6.249103855710274 pbc="F F F"
N        0.00000000       0.00000000       0.00000000       0.00000000       0.00000000      -0.00215218
N        0.00000000       0.00000000       5.94040404       0.00000000       0.00000000       0.00215218
2
Properties=species:S:1:pos:R:3:forces:R:3 energy=-6.249131304415623 pbc="F F F"
N        0.00000000       0.00000000       0.00000000       0.00000000       0.00000000       0.00035882
N        0.00000000       0.00000000       6.00000000       0.00000000       0.00000000      -0.00035882
