2
Properties=species:S:1:pos:R:3:forces:R:3 energy=498.1143934423672 pbc="F F F"
N        0.00000000       0.00000000       0.00000000       0.00000000       0.00000000   -6160.27490234
N        0.00000000       0.00000000       0.18000000       0.00000000       0.00000000    6160.27490234
2
Properties=species:S:1:pos:R:3:forces:R:3 energy=263.4736463720547 pbc="F F F"
N        0.00000000       0.00000000       0.00000000       0.00000000       0.00000000   -2474.42358398
N        0.00000000       0.00000000       0.23878788       0.00000000       0.00000000    2474.42358398
2
Properties=species:S:1:pos:R:3:forces:R:3 energy=164.37156507639438 pbc="F F F"
N        0.00000000       0.00000000       0.00000000       0.00000000       0.00000000   -1097.08825684
N        0.00000000       0.00000000       0.29757576       0.00000000       0.00000000    1097.08825684
2
Properties=species:S:1:pos:R:3:forces:R:3 energy=119.65997908577879 pbc="F F F"
N        0.00000000       0.00000000       0.00000000       0.00000000       0.00000000    -502.64346313
N        0.00000000       0.00000000       0.35636364       0.00000000       0.00000000     502.64346313
2
Properties=species:S:1:pos:R:3:forces:R:3 energy=98.90267014165696 pbc="F F F"
N        0.00000000       0.00000000       0.00000000       0.00000000       0.00000000    -245.57991028
N        0.00000000       0.00000000       0.41515152       0.00000000       0.00000000     245.57991028
2
Properties=species:S:1:pos:R:3:forces:R:3 energy=86.30221393554221 pbc="F F F"
N        0.00000000       0.00000000       0.00000000       0.00000000       0.00000000    -215.48297119
N        0.00000000       0.00000000       0.47393939       0.00000000       0.00000000     215.48297119
2
Properties=species:S:1:pos:R:3:forces:R:3 energy=71.24474939770536 pbc="F F F"
N        0.00000000       0.00000000       0.00000000       0.00000000       0.00000000    -301.88845825
N        0.00000000       0.00000000       0.53272727       0.00000000       0.00000000     301.88845825
2
Properties=species:S:1:pos:R:3:forces:R:3 energy=51.647268729901626 pbc="F F F"
N        0.00000000       0.00000000       0.00000000       0.00000000       0.00000000    -348.81723022
N        0.00000000       0.00000000       0.59151515       0.00000000       0.00000000     348.81723022
2
Properties=species:S:1:pos:R:3:forces:R:3 energy=32.20616401600778 pbc="F F F"
N        0.00000000       0.00000000       0.00000000       0.00000000       0.00000000    -302.23510742
N        0.00000000       0.00000000       0.65030303       0.00000000       0.00000000     302.23510742
2
Properties=species:S:1:pos:R:3:forces:R:3 energy=16.456736496990107 pbc="F F F"
N        0.00000000       0.00000000       0.00000000       0.00000000       0.00000000    -232.84411621
N        0.00000000       0.00000000       0.70909091       0.00000000       0.00000000     232.84411621
2
Properties=species:S:1:pos:R:3:forces:R:3 energy=4.839078776867485 pbc="F F F"
N        0.00000000       0.00000000       0.00000000       0.00000000       0.00000000    -164.31474304
N        0.00000000       0.00000000       0.76787879       0.00000000       0.00000000     164.31474304
2
Properties=species:S:1:pos:R:3:forces:R:3 energy=-3.3404004452006655 pbc="F F F"
N        0.00000000       0.00000000       0.00000000       0.00000000       0.00000000    -118.53610229
N        0.00000000       0.00000000       0.82666667       0.00000000       0.00000000     118.53610229
2
Properties=species:S:1:pos:R:3:forces:R:3 energy=-9.279127179434036 pbc="F F F"
N        0.00000000       0.00000000       0.00000000       0.00000000       0.00000000     -83.10314941
N        0.00000000       0.00000000       0.88545455       0.00000000       0.00000000      83.10314941
2
Properties=species:S:1:pos:R:3:forces:R:3 energy=-13.142738118971192 pbc="F F F"
N        0.00000000       0.00000000       0.00000000       0.00000000       0.00000000     -49.37469101
N        0.00000000       0.00000000       0.94424242       0.00000000       0.00000000      49.37469101
2
Properties=species:S:1:pos:R:3:forces:R:3 energy=-15.26590346215021 pbc="F F F"
N        0.00000000       0.00000000       0.00000000       0.00000000       0.00000000     -24.64037514
N        0.00000000       0.00000000       1.00303030       0.00000000       0.00000000      24.64037514
2
Properties=species:S:1:pos:R:3:forces:R:3 energy=-16.223462675822095 pbc="F F F"
N        0.00000000       0.00000000       0.00000000       0.00000000       0.00000000      -9.11739826
N        0.00000000       0.00000000       1.06181818       0.00000000       0.00000000       9.11739826
2
Properties=species:S:1:pos:R:3:forces:R:3 energy=-16.439106399870045 pbc="F F F"
N        0.00000000       0.00000000       0.00000000       0.00000000       0.00000000       1.11298490
N        0.00000000       0.00000000       1.12060606       0.00000000       0.00000000      -1.11298490
2
Properties=species:S:1:pos:R:3:forces:R:3 energy=-16.162401493508106 pbc="F F F"
N        0.00000000       0.00000000       0.00000000       0.00000000       0.00000000       7.76589489
N        0.00000000       0.00000000       1.17939394       0.00000000       0.00000000      -7.76589489
2
Properties=species:S:1:pos:R:3:forces:R:3 energy=-15.581034690000788 pbc="F F F"
N        0.00000000       0.00000000       0.00000000       0.00000000       0.00000000      11.61658382
N        0.00000000       0.00000000       1.23818182       0.00000000       0.00000000     -11.61658382
2
Properties=species:S:1:pos:R:3:forces:R:3 energy=-14.834072497029661 pbc="F F F"
N        0.00000000       0.00000000       0.00000000       0.00000000       0.00000000      13.55522537
N        0.00000000       0.00000000       1.29696970       0.00000000       0.00000000     -13.55522537
2
Properties=species:S:1:pos:R:3:forces:R:3 energy=-14.007420814253532 pbc="F F F"
N        0.00000000       0.00000000       0.00000000       0.00000000       0.00000000      14.44909477
N        0.00000000       0.00000000       1.35575758       0.00000000       0.00000000     -14.44909477
2
Properties=species:S:1:pos:R:3:forces:R:3 energy=-13.14681882506503 pbc="F F F"
N        0.00000000       0.00000000       0.00000000       0.00000000       0.00000000      14.73134327
N        0.00000000       0.00000000       1.41454545       0.00000000       0.00000000     -14.73134327
2
Properties=species:S:1:pos:R:3:forces:R:3 energy=-12.287982880895342 pbc="F F F"
N        0.00000000       0.00000000       0.00000000       0.00000000       0.00000000      14.37286854
N        0.00000000       0.00000000       1.47333333       0.00000000       0.00000000     -14.37286854
2
Properties=species:S:1:pos:R:3:forces:R:3 energy=-11.470039235211823 pbc="F F F"
N        0.00000000       0.00000000       0.00000000       0.00000000       0.00000000      13.35568714
N        0.00000000       0.00000000       1.53212121       0.00000000       0.00000000     -13.35568714
2
Properties=species:S:1:pos:R:3:forces:R:3 energy=-10.72622236040215 pbc="F F F"
N        0.00000000       0.00000000       0.00000000       0.00000000       0.00000000      11.90698433
N        0.00000000       0.00000000       1.59090909       0.00000000       0.00000000     -11.90698433
2
Properties=species:S:1:pos:R:3:forces:R:3 energy=-10.071473591719302 pbc="F F F"
N        0.00000000       0.00000000       0.00000000       0.00000000       0.00000000      10.38481140
N        0.00000000       0.00000000       1.64969697       0.00000000       0.00000000     -10.38481140
2
Properties=species:S:1:pos:R:3:forces:R:3 energy=-9.50069263122737 pbc="F F F"
N        0.00000000       0.00000000       0.00000000       0.00000000       0.00000000       9.08749199
N        0.00000000       0.00000000       1.70848485       0.00000000       0.00000000      -9.08749199
2
Properties=species:S:1:pos:R:3:forces:R:3 energy=-8.995967360219648 pbc="F F F"
N        0.00000000       0.00000000       0.00000000       0.00000000       0.00000000       8.14300442
N        0.00000000       0.00000000       1.76727273       0.00000000       0.00000000      -8.14300442
2
Properties=species:S:1:pos:R:3:forces:R:3 energy=-8.537024570615255 pbc="F F F"
N        0.00000000       0.00000000       0.00000000       0.00000000       0.00000000       7.51452160
N        0.00000000       0.00000000       1.82606061       0.00000000       0.00000000      -7.51452160
2
Properties=species:S:1:pos:R:3:forces:R:3 energy=-8.108666255975628 pbc="F F F"
N        0.00000000       0.00000000       0.00000000       0.00000000       0.00000000       7.07766581
N        0.00000000       0.00000000       1.88484848       0.00000000       0.00000000      -7.07766581
2
Properties=species:S:1:pos:R:3:forces:R:3 energy=-7.704245504116192 pbc="F F F"
N        0.00000000       0.00000000       0.00000000       0.00000000       0.00000000       6.67254591
N        0.00000000       0.00000000       1.94363636       0.00000000       0.00000000      -6.67254591
2
Properties=species:S:1:pos:R:3:forces:R:3 energy=-7.326500956276213 pbc="F F F"
N        0.00000000       0.00000000       0.00000000       0.00000000       0.00000000       6.14927483
N        0.00000000       0.00000000       2.00242424       0.00000000       0.00000000      -6.14927483
2
Properties=species:S:1:pos:R:3:forces:R:3 energy=-6.985149664591697 pbc="F F F"
N        0.00000000       0.00000000       0.00000000       0.00000000       0.00000000       5.42992830
N        0.00000000       0.00000000       2.06121212       0.00000000       0.00000000      -5.42992830
2
Properties=species:S:1:pos:R:3:forces:R:3 energy=-6.691601973671819 pbc="F F F"
N        0.00000000       0.00000000       0.00000000       0.00000000       0.00000000       4.53320122
N        0.00000000       0.00000000       2.12000000       0.00000000       0.00000000      -4.53320122
2
Properties=species:S:1:pos:R:3:forces:R:3 energy=-6.453907257411626 pbc="F F F"
N        0.00000000       0.00000000       0.00000000       0.00000000       0.00000000       3.54779434
N        0.00000000       0.00000000       2.17878788       0.00000000       0.00000000      -3.54779434
2
Properties=species:S:1:pos:R:3:forces:R:3 energy=-6.2740281909956455 pbc="F F F"
N        0.00000000       0.00000000       0.00000000       0.00000000       0.00000000       2.58397627
N        0.00000000       0.00000000       2.23757576       0.00000000       0.00000000      -2.58397627
2
Properties=species:S:1:pos:R:3:forces:R:3 energy=-6.147882417705982 pbc="F F F"
N        0.00000000       0.00000000       0.00000000       0.00000000       0.00000000       1.73150444
N        0.00000000       0.00000000       2.29636364       0.00000000       0.00000000      -1.73150444
2
Properties=species:S:1:pos:R:3:forces:R:3 energy=-6.067282231319784 pbc="F F F"
N        0.00000000       0.00000000       0.00000000       0.00000000       0.00000000       1.03906834
N        0.00000000       0.00000000       2.35515152       0.00000000       0.00000000      -1.03906834
2
Properties=species:S:1:pos:R:3:forces:R:3 energy=-6.022391453864646 pbc="F F F"
N        0.00000000       0.00000000       0.00000000       0.00000000       0.00000000       0.51532370
N        0.00000000       0.00000000       2.41393939       0.00000000       0.00000000      -0.51532370
2
Properties=species:S:1:pos:R:3:forces:R:3 energy=-6.003722358201314 pbc="F F F"
N        0.00000000       0.00000000       0.00000000       0.00000000       0.00000000       0.14272548
N        0.00000000       0.00000000       2.47272727       0.00000000       0.00000000      -0.14272548
2
Properties=species:S:1:pos:R:3:forces:R:3 energy=-6.003207530559179 pbc="F F F"
N        0.00000000       0.00000000       0.00000000       0.00000000       0.00000000      -0.10726055
N        0.00000000       0.00000000       2.53151515       0.00000000       0.00000000       0.10726055
2
Properties=species:S:1:pos:R:3:forces:R:3 energy=-6.014502875959737 pbc="F F F"
N        0.00000000       0.00000000       0.00000000       0.00000000       0.00000000      -0.26365533
N        0.00000000       0.00000000       2.59030303       0.00000000       0.00000000       0.26365533
2
Properties=species:S:1:pos:R:3:forces:R:3 energy=-6.032863760140735 pbc="F F F"
N        0.00000000       0.00000000       0.00000000       0.00000000       0.00000000      -0.35134149
N        0.00000000       0.00000000       2.64909091       0.00000000       0.00000000       0.35134149
2
Properties=species:S:1:pos:R:3:forces:R:3 energy=-6.054857565448799 pbc="F F F"
N        0.00000000       0.00000000       0.00000000       0.00000000       0.00000000      -0.39014554
N        0.00000000       0.00000000       2.70787879       0.00000000       0.00000000       0.39014554
2
Properties=species:S:1:pos:R:3:forces:R:3 energy=-6.0780800265832795 pbc="F F F"
N        0.00000000       0.00000000       0.00000000       0.00000000       0.00000000      -0.39539331
N        0.00000000       0.00000000       2.76666667       0.00000000       0.00000000       0.39539331
2
Properties=species:S:1:pos:R:3:forces:R:3 energy=-6.100919243720269 pbc="F F F"
N        0.00000000       0.00000000       0.00000000       0.00000000       0.00000000      -0.37873769
N        0.00000000       0.00000000       2.82545455       0.00000000       0.00000000       0.37873769
2
Properties=species:S:1:pos:R:3:forces:R:3 energy=-6.122353519396642 pbc="F F F"
N        0.00000000       0.00000000       0.00000000       0.00000000       0.00000000      -0.34886423
N        0.00000000       0.00000000       2.88424242       0.00000000       0.00000000       0.34886423
2
Properties=species:S:1:pos:R:3:forces:R:3 energy=-6.141802604323621 pbc="F F F"
N        0.00000000       0.00000000       0.00000000       0.00000000       0.00000000      -0.31207019
N        0.00000000       0.00000000       2.94303030       0.00000000       0.00000000       0.31207019
2
Properties=species:S:1:pos:R:3:forces:R:3 energy=-6.158997504211526 pbc="F F F"
N        0.00000000       0.00000000       0.00000000       0.00000000       0.00000000      -0.27277118
N        0.00000000       0.00000000       3.00181818       0.00000000       0.00000000       0.27277118
2
Properties=species:S:1:pos:R:3:forces:R:3 energy=-6.173883640644969 pbc="F F F"
N        0.00000000       0.00000000       0.00000000       0.00000000       0.00000000      -0.23394085
N        0.00000000       0.00000000       3.06060606       0.00000000       0.00000000       0.23394085
2
Properties=species:S:1:pos:R:3:forces:R:3 energy=-6.186549773043928 pbc="F F F"
N        0.00000000       0.00000000       0.00000000       0.00000000       0.00000000      -0.19747503
N        0.00000000       0.00000000       3.11939394       0.00000000       0.00000000       0.19747503
2
Properties=species:S:1:pos:R:3:forces:R:3 energy=-6.197170700593118 pbc="F F F"
N        0.00000000       0.00000000       0.00000000       0.00000000       0.00000000      -0.16449091
N        0.00000000       0.00000000       3.17818182       0.00000000       0.00000000       0.16449091
2
Properties=species:S:1:pos:R:3:forces:R:3 energy=-6.20596951291094 pbc="F F F"
N        0.00000000       0.00000000       0.00000000       0.00000000       0.00000000      -0.13554664
N        0.00000000       0.00000000       3.23696970       0.00000000       0.00000000       0.13554664
2
Properties=species:S:1:pos:R:3:forces:R:3 energy=-6.213190814308716 pbc="F F F"
N        0.00000000       0.00000000       0.00000000       0.00000000       0.00000000      -0.11080937
N        0.00000000       0.00000000       3.29575758       0.00000000       0.00000000       0.11080937
2
Properties=species:S:1:pos:R:3:forces:R:3 energy=-6.219078215825672 pbc="F F F"
N        0.00000000       0.00000000       0.00000000       0.00000000       0.00000000      -0.09017529
N        0.00000000       0.00000000       3.35454545       0.00000000       0.00000000       0.09017529
2
Properties=species:S:1:pos:R:3:forces:R:3 energy=-6.223867568433839 pbc="F F F"
N        0.00000000       0.00000000       0.00000000       0.00000000       0.00000000      -0.07335477
N        0.00000000       0.00000000       3.41333333       0.00000000       0.00000000       0.07335477
2
Properties=species:S:1:pos:R:3:forces:R:3 energy=-6.227770229783985 pbc="F F F"
N        0.00000000       0.00000000       0.00000000       0.00000000       0.00000000      -0.05993327
N        0.00000000       0.00000000       3.47212121       0.00000000       0.00000000       0.05993327
2
Properties=species:S:1:pos:R:3:forces:R:3 energy=-6.230971070137851 pbc="F F F"
N        0.00000000       0.00000000       0.00000000       0.00000000       0.00000000      -0.04941856
N        0.00000000       0.00000000       3.53090909       0.00000000       0.00000000       0.04941856
2
Properties=species:S:1:pos:R:3:forces:R:3 energy=-6.233627004238783 pbc="F F F"
N        0.00000000       0.00000000       0.00000000       0.00000000       0.00000000      -0.04127416
N        0.00000000       0.00000000       3.58969697       0.00000000       0.00000000       0.04127416
2
Properties=species:S:1:pos:R:3:forces:R:3 energy=-6.235859828854922 pbc="F F F"
N        0.00000000       0.00000000       0.00000000       0.00000000       0.00000000      -0.03495355
N        0.00000000       0.00000000       3.64848485       0.00000000       0.00000000       0.03495355
2
Properties=species:S:1:pos:R:3:forces:R:3 energy=-6.237761919482521 pbc="F F F"
N        0.00000000       0.00000000       0.00000000       0.00000000       0.00000000      -0.02993529
N        0.00000000       0.00000000       3.70727273       0.00000000       0.00000000       0.02993529
2
Properties=species:S:1:pos:R:3:forces:R:3 energy=-6.239395764992143 pbc="F F F"
N        0.00000000       0.00000000       0.00000000       0.00000000       0.00000000      -0.02576279
N        0.00000000       0.00000000       3.76606061       0.00000000       0.00000000       0.02576279
2
Properties=species:S:1:pos:R:3:forces:R:3 energy=-6.240800667107542 pbc="F F F"
N        0.00000000       0.00000000       0.00000000       0.00000000       0.00000000      -0.02207444
N        0.00000000       0.00000000       3.82484848       0.00000000       0.00000000       0.02207444
2
Properties=species:S:1:pos:R:3:forces:R:3 energy=-6.241996086977281 pbc="F F F"
N        0.00000000       0.00000000       0.00000000       0.00000000       0.00000000      -0.01863832
N        0.00000000       0.00000000       3.88363636       0.00000000       0.00000000       0.01863832
2
Properties=species:S:1:pos:R:3:forces:R:3 energy=-6.242994573235004 pbc="F F F"
N        0.00000000       0.00000000       0.00000000       0.00000000       0.00000000      -0.01535359
N        0.00000000       0.00000000       3.94242424       0.00000000       0.00000000       0.01535359
2
Properties=species:S:1:pos:R:3:forces:R:3 energy=-6.243804642821271 pbc="F F F"
N        0.00000000       0.00000000       0.00000000       0.00000000       0.00000000      -0.01224131
N        0.00000000       0.00000000       4.00121212       0.00000000       0.00000000       0.01224131
2
Properties=species:S:1:pos:R:3:forces:R:3 energy=-6.2444389254271035 pbc="F F F"
N        0.00000000       0.00000000       0.00000000       0.00000000       0.00000000      -0.00939743
N        0.00000000       0.00000000       4.06000000       0.00000000       0.00000000       0.00939743
2
Properties=species:S:1:pos:R:3:forces:R:3 energy=-6.244917062530799 pbc="F F F"
N        0.00000000       0.00000000       0.00000000       0.00000000       0.00000000      -0.00692560
N        0.00000000       0.00000000       4.11878788       0.00000000       0.00000000       0.00692560
2
Properties=species:S:1:pos:R:3:forces:R:3 energy=-6.245261923586934 pbc="F F F"
N        0.00000000       0.00000000       0.00000000       0.00000000       0.00000000      -0.00488314
N        0.00000000       0.00000000       4.17757576       0.00000000       0.00000000       0.00488314
2
Properties=species:S:1:pos:R:3:forces:R:3 energy=-6.245498672348919 pbc="F F F"
N        0.00000000       0.00000000       0.00000000       0.00000000       0.00000000      -0.00323423
N        0.00000000       0.00000000       4.23636364       0.00000000       0.00000000       0.00323423
2
Properties=species:S:1:pos:R:3:forces:R:3 energy=-6.245647649553653 pbc="F F F"
N        0.00000000       0.00000000       0.00000000       0.00000000       0.00000000      -0.00184107
N        0.00000000       0.00000000       4.29515152       0.00000000       0.00000000       0.00184107
2
Properties=species:S:1:pos:R:3:forces:R:3 energy=-6.245716289062573 pbc="F F F"
N        0.00000000       0.00000000       0.00000000       0.00000000       0.00000000      -0.00050326
N        0.00000000       0.00000000       4.35393939       0.00000000       0.00000000       0.00050326
2
Properties=species:S:1:pos:R:3:forces:R:3 energy=-6.2457034153357505 pbc="F F F"
N        0.00000000       0.00000000       0.00000000       0.00000000       0.00000000       0.00098697
N        0.00000000       0.00000000       4.41272727       0.00000000       0.00000000      -0.00098697
2
Properties=species:S:1:pos:R:3:forces:R:3 energy=-6.245594496641091 pbc="F F F"
N        0.00000000       0.00000000       0.00000000       0.00000000       0.00000000       0.00277300
N        0.00000000       0.00000000       4.47151515       0.00000000       0.00000000      -0.00277300
2
Properties=species:S:1:pos:R:3:forces:R:3 energy=-6.245371197240634 pbc="F F F"
N        0.00000000       0.00000000       0.00000000       0.00000000       0.00000000       0.00487557
N        0.00000000       0.00000000       4.53030303       0.00000000       0.00000000      -0.00487557
2
Properties=species:S:1:pos:R:3:forces:R:3 energy=-6.245017099634444 pbc="F F F"
N        0.00000000       0.00000000       0.00000000       0.00000000       0.00000000       0.00716509
N        0.00000000       0.00000000       4.58909091       0.00000000       0.00000000      -0.00716509
2
Properties=species:S:1:pos:R:3:forces:R:3 energy=-6.244530590449239 pbc="F F F"
N        0.00000000       0.00000000       0.00000000       0.00000000       0.00000000       0.00936416
N        0.00000000       0.00000000       4.64787879       0.00000000       0.00000000      -0.00936416
2
Properties=species:S:1:pos:R:3:forces:R:3 energy=-6.243925344205171 pbc="F F F"
N        0.00000000       0.00000000       0.00000000       0.00000000       0.00000000       0.01110334
N        0.00000000       0.00000000       4.70666667       0.00000000       0.00000000      -0.01110334
2
Properties=species:S:1:pos:R:3:forces:R:3 energy=-6.243241764239793 pbc="F F F"
N        0.00000000       0.00000000       0.00000000       0.00000000       0.00000000       0.01199926
N        0.00000000       0.00000000       4.76545455       0.00000000       0.00000000      -0.01199926
2
Properties=species:S:1:pos:R:3:forces:R:3 energy=-6.242536500606112 pbc="F F F"
N        0.00000000       0.00000000       0.00000000       0.00000000       0.00000000       0.01177703
N        0.00000000       0.00000000       4.82424242       0.00000000       0.00000000      -0.01177703
2
Properties=species:S:1:pos:R:3:forces:R:3 energy=-6.24188006489686 pbc="F F F"
N        0.00000000       0.00000000       0.00000000       0.00000000       0.00000000       0.01039054
N        0.00000000       0.00000000       4.88303030       0.00000000       0.00000000      -0.01039054
2
Properties=species:S:1:pos:R:3:forces:R:3 energy=-6.241333461560939 pbc="F F F"
N        0.00000000       0.00000000       0.00000000       0.00000000       0.00000000       0.00809303
N        0.00000000       0.00000000       4.94181818       0.00000000       0.00000000      -0.00809303
2
Properties=species:S:1:pos:R:3:forces:R:3 energy=-6.240935318051887 pbc="F F F"
N        0.00000000       0.00000000       0.00000000       0.00000000       0.00000000       0.00543697
N        0.00000000       0.00000000       5.00060606       0.00000000       0.00000000      -0.00543697
2
Properties=species:S:1:pos:R:3:forces:R:3 energy=-6.2406880548673875 pbc="F F F"
N        0.00000000       0.00000000       0.00000000       0.00000000       0.00000000       0.00306657
N        0.00000000       0.00000000       5.05939394       0.00000000       0.00000000      -0.00306657
2
Properties=species:S:1:pos:R:3:forces:R:3 energy=-6.240562650456042 pbc="F F F"
N        0.00000000       0.00000000       0.00000000       0.00000000       0.00000000       0.00127952
N        0.00000000       0.00000000       5.11818182       0.00000000       0.00000000      -0.00127952
2
Properties=species:S:1:pos:R:3:forces:R:3 energy=-6.240536788783991 pbc="F F F"
N        0.00000000       0.00000000       0.00000000       0.00000000       0.00000000      -0.00049890
N        0.00000000       0.00000000       5.17696970       0.00000000       0.00000000       0.00049890
2
Properties=species:S:1:pos:R:3:forces:R:3 energy=-6.240648739755919 pbc="F F F"
N        0.00000000       0.00000000       0.00000000       0.00000000       0.00000000      -0.00363871
N        0.00000000       0.00000000       5.23575758       0.00000000       0.00000000       0.00363871
2
Properties=species:S:1:pos:R:3:forces:R:3 energy=-6.24100498742165 pbc="F F F"
N        0.00000000       0.00000000       0.00000000       0.00000000       0.00000000      -0.00874442
N        0.00000000       0.00000000       5.29454545       0.00000000       0.00000000       0.00874442
2
Properties=species:S:1:pos:R:3:forces:R:3 energy=-6.24167580154956 pbc="F F F"
N        0.00000000       0.00000000       0.00000000       0.00000000       0.00000000      -0.01374601
N        0.00000000       0.00000000       5.35333333       0.00000000       0.00000000       0.01374601
2
Properties=species:S:1:pos:R:3:forces:R:3 energy=-6.2425483685150365 pbc="F F F"
N        0.00000000       0.00000000       0.00000000       0.00000000       0.00000000      -0.01511741
N        0.00000000       0.00000000       5.41212121       0.00000000       0.00000000       0.01511741
2
Properties=species:S:1:pos:R:3:forces:R:3 energy=-6.243362554235834 pbc="F F F"
N        0.00000000       0.00000000       0.00000000       0.00000000       0.00000000      -0.01200679
N        0.00000000       0.00000000       5.47090909       0.00000000       0.00000000       0.01200679
2
Properties=species:S:1:pos:R:3:forces:R:3 energy=-6.243938353170169 pbc="F F F"
N        0.00000000       0.00000000       0.00000000       0.00000000       0.00000000      -0.00782984
N        0.00000000       0.00000000       5.52969697       0.00000000       0.00000000       0.00782984
2
Properties=species:S:1:pos:R:3:forces:R:3 energy=-6.244357561195109 pbc="F F F"
N        0.00000000       0.00000000       0.00000000       0.00000000       0.00000000      -0.00733788
N        0.00000000       0.00000000       5.58848485       0.00000000       0.00000000       0.00733788
2
Properties=species:S:1:pos:R:3:forces:R:3 energy=-6.244907510108837 pbc="F F F"
N        0.00000000       0.00000000       0.00000000       0.00000000       0.00000000      -0.01207716
N        0.00000000       0.00000000       5.64727273       0.00000000       0.00000000       0.01207716
2
Properties=species:S:1:pos:R:3:forces:R:3 energy=-6.245807834939778 pbc="F F F"
N        0.00000000       0.00000000       0.00000000       0.00000000       0.00000000      -0.01830244
N        0.00000000       0.00000000       5.70606061       0.00000000       0.00000000       0.01830244
2
Properties=species:S:1:pos:R:3:forces:R:3 energy=-6.246976824481537 pbc="F F F"
N        0.00000000       0.00000000       0.00000000       0.00000000       0.00000000      -0.02035975
N        0.00000000       0.00000000       5.76484848       0.00000000       0.00000000       0.02035975
2
Properties=species:S:1:pos:R:3:forces:R:3 energy=-6.248075290608444 pbc="F F F"
N        0.00000000       0.00000000       0.00000000       0.00000000       0.00000000      -0.01614312
N        0.00000000       0.00000000       5.82363636       0.00000000       0.00000000       0.01614312
2
Properties=species:S:1:pos:R:3:forces:R:3 energy=-6.24880506403032 pbc="F F F"
N        0.00000000       0.00000000       0.00000000       0.00000000       0.00000000      -0.00856432
N        0.00000000       0.00000000       5.88242424       0.00000000       0.00000000       0.00856432
2
Properties=species:S:1:pos:R:3:forces:R:3 energy=-6.249104975453446 pbc="F F F"
N        0.00000000       0.00000000       0.00000000       0.00000000       0.00000000      -0.00208197
N        0.00000000       0.00000000       5.94121212       0.00000000       0.00000000       0.00208197
2
Properties=species:S:1:pos:R:3:forces:R:3 energy=-6.249131304415623 pbc="F F F"
N        0.00000000       0.00000000       0.00000000       0.00000000       0.00000000       0.00035882
N        0.00000000       0.00000000       6.00000000       0.00000000       0.00000000      -0.00035882
