2
Properties=species:S:1:pos:R:3:forces:R:3 energy=933.2621152160981 pbc="F F F"
Na       0.00000000       0.00000000       0.00000000       0.00000000       0.00000000  -13144.87500000
Na       0.00000000       0.00000000       0.18000000       0.00000000       0.00000000   13144.87500000
2
Properties=species:S:1:pos:R:3:forces:R:3 energy=438.52481052859804 pbc="F F F"
Na       0.00000000       0.00000000       0.00000000       0.00000000       0.00000000   -5167.40820312
Na       0.00000000       0.00000000       0.23878788       0.00000000       0.00000000    5167.40820312
2
Properties=species:S:1:pos:R:3:forces:R:3 energy=229.99647495730898 pbc="F F F"
Na       0.00000000       0.00000000       0.00000000       0.00000000       0.00000000   -2361.63964844
Na       0.00000000       0.00000000       0.29757576       0.00000000       0.00000000    2361.63964844
2
Properties=species:S:1:pos:R:3:forces:R:3 energy=129.9768979309418 pbc="F F F"
Na       0.00000000       0.00000000       0.00000000       0.00000000       0.00000000   -1196.39562988
Na       0.00000000       0.00000000       0.35636364       0.00000000       0.00000000    1196.39562988
2
Properties=species:S:1:pos:R:3:forces:R:3 energy=77.52901432815258 pbc="F F F"
Na       0.00000000       0.00000000       0.00000000       0.00000000       0.00000000    -651.78399658
Na       0.00000000       0.00000000       0.41515152       0.00000000       0.00000000     651.78399658
2
Properties=species:S:1:pos:R:3:forces:R:3 energy=48.23072789174822 pbc="F F F"
Na       0.00000000       0.00000000       0.00000000       0.00000000       0.00000000    -374.21102905
Na       0.00000000       0.00000000       0.47393939       0.00000000       0.00000000     374.21102905
2
Properties=species:S:1:pos:R:3:forces:R:3 energy=31.09311460315898 pbc="F F F"
Na       0.00000000       0.00000000       0.00000000       0.00000000       0.00000000    -223.37045288
Na       0.00000000       0.00000000       0.53272727       0.00000000       0.00000000     223.37045288
2
Properties=species:S:1:pos:R:3:forces:R:3 energy=20.716985463855732 pbc="F F F"
Na       0.00000000       0.00000000       0.00000000       0.00000000       0.00000000    -137.33824158
Na       0.00000000       0.00000000       0.59151515       0.00000000       0.00000000     137.33824158
2
Properties=species:S:1:pos:R:3:forces:R:3 energy=14.267114418046333 pbc="F F F"
Na       0.00000000       0.00000000       0.00000000       0.00000000       0.00000000     -86.37117004
Na       0.00000000       0.00000000       0.65030303       0.00000000       0.00000000      86.37117004
2
Properties=species:S:1:pos:R:3:forces:R:3 energy=10.178002167925237 pbc="F F F"
Na       0.00000000       0.00000000       0.00000000       0.00000000       0.00000000     -55.21179199
Na       0.00000000       0.00000000       0.70909091       0.00000000       0.00000000      55.21179199
2
Properties=species:S:1:pos:R:3:forces:R:3 energy=7.550586078394132 pbc="F F F"
Na       0.00000000       0.00000000       0.00000000       0.00000000       0.00000000     -35.64742279
Na       0.00000000       0.00000000       0.76787879       0.00000000       0.00000000      35.64742279
2
Properties=species:S:1:pos:R:3:forces:R:3 energy=5.850407044881776 pbc="F F F"
Na       0.00000000       0.00000000       0.00000000       0.00000000       0.00000000     -23.10143471
Na       0.00000000       0.00000000       0.82666667       0.00000000       0.00000000      23.10143471
2
Properties=species:S:1:pos:R:3:forces:R:3 energy=4.749257580895445 pbc="F F F"
Na       0.00000000       0.00000000       0.00000000       0.00000000       0.00000000     -14.93518066
Na       0.00000000       0.00000000       0.88545455       0.00000000       0.00000000      14.93518066
2
Properties=species:S:1:pos:R:3:forces:R:3 energy=4.039718778912896 pbc="F F F"
Na       0.00000000       0.00000000       0.00000000       0.00000000       0.00000000      -9.57945538
Na       0.00000000       0.00000000       0.94424242       0.00000000       0.00000000       9.57945538
2
Properties=species:S:1:pos:R:3:forces:R:3 energy=3.5863848711366195 pbc="F F F"
Na       0.00000000       0.00000000       0.00000000       0.00000000       0.00000000      -6.10178375
Na       0.00000000       0.00000000       1.00303030       0.00000000       0.00000000       6.10178375
2
Properties=species:S:1:pos:R:3:forces:R:3 energy=3.296541083708363 pbc="F F F"
Na       0.00000000       0.00000000       0.00000000       0.00000000       0.00000000      -3.94429135
Na       0.00000000       0.00000000       1.06181818       0.00000000       0.00000000       3.94429135
2
Properties=species:S:1:pos:R:3:forces:R:3 energy=3.104138575085133 pbc="F F F"
Na       0.00000000       0.00000000       0.00000000       0.00000000       0.00000000      -2.73284173
Na       0.00000000       0.00000000       1.12060606       0.00000000       0.00000000       2.73284173
2
Properties=species:S:1:pos:R:3:forces:R:3 energy=2.962436355515317 pbc="F F F"
Na       0.00000000       0.00000000       0.00000000       0.00000000       0.00000000      -2.17605114
Na       0.00000000       0.00000000       1.17939394       0.00000000       0.00000000       2.17605114
2
Properties=species:S:1:pos:R:3:forces:R:3 energy=2.839951040136463 pbc="F F F"
Na       0.00000000       0.00000000       0.00000000       0.00000000       0.00000000      -2.04670238
Na       0.00000000       0.00000000       1.23818182       0.00000000       0.00000000       2.04670238
2
Properties=species:S:1:pos:R:3:forces:R:3 energy=2.7167289281528917 pbc="F F F"
Na       0.00000000       0.00000000       0.00000000       0.00000000       0.00000000      -2.17695069
Na       0.00000000       0.00000000       1.29696970       0.00000000       0.00000000       2.17695069
2
Properties=species:S:1:pos:R:3:forces:R:3 energy=2.581515503800246 pbc="F F F"
Na       0.00000000       0.00000000       0.00000000       0.00000000       0.00000000      -2.43456340
Na       0.00000000       0.00000000       1.35575758       0.00000000       0.00000000       2.43456340
2
Properties=species:S:1:pos:R:3:forces:R:3 energy=2.4300531292746177 pbc="F F F"
Na       0.00000000       0.00000000       0.00000000       0.00000000       0.00000000      -2.71629143
Na       0.00000000       0.00000000       1.41454545       0.00000000       0.00000000       2.71629143
2
Properties=species:S:1:pos:R:3:forces:R:3 energy=2.2625292490965134 pbc="F F F"
Na       0.00000000       0.00000000       0.00000000       0.00000000       0.00000000      -2.98105407
Na       0.00000000       0.00000000       1.47333333       0.00000000       0.00000000       2.98105407
2
Properties=species:S:1:pos:R:3:forces:R:3 energy=2.079517547468495 pbc="F F F"
Na       0.00000000       0.00000000       0.00000000       0.00000000       0.00000000      -3.24581194
Na       0.00000000       0.00000000       1.53212121       0.00000000       0.00000000       3.24581194
2
Properties=species:S:1:pos:R:3:forces:R:3 energy=1.8812529284635087 pbc="F F F"
Na       0.00000000       0.00000000       0.00000000       0.00000000       0.00000000      -3.49086452
Na       0.00000000       0.00000000       1.59090909       0.00000000       0.00000000       3.49086452
2
Properties=species:S:1:pos:R:3:forces:R:3 energy=1.670632007507236 pbc="F F F"
Na       0.00000000       0.00000000       0.00000000       0.00000000       0.00000000      -3.65833950
Na       0.00000000       0.00000000       1.64969697       0.00000000       0.00000000       3.65833950
2
Properties=species:S:1:pos:R:3:forces:R:3 energy=1.4530015196408728 pbc="F F F"
Na       0.00000000       0.00000000       0.00000000       0.00000000       0.00000000      -3.73154783
Na       0.00000000       0.00000000       1.70848485       0.00000000       0.00000000       3.73154783
2
Properties=species:S:1:pos:R:3:forces:R:3 energy=1.233154124631249 pbc="F F F"
Na       0.00000000       0.00000000       0.00000000       0.00000000       0.00000000      -3.74044538
Na       0.00000000       0.00000000       1.76727273       0.00000000       0.00000000       3.74044538
2
Properties=species:S:1:pos:R:3:forces:R:3 energy=1.0137820224828653 pbc="F F F"
Na       0.00000000       0.00000000       0.00000000       0.00000000       0.00000000      -3.71964097
Na       0.00000000       0.00000000       1.82606061       0.00000000       0.00000000       3.71964097
2
Properties=species:S:1:pos:R:3:forces:R:3 energy=0.7961416755238063 pbc="F F F"
Na       0.00000000       0.00000000       0.00000000       0.00000000       0.00000000      -3.68143225
Na       0.00000000       0.00000000       1.88484848       0.00000000       0.00000000       3.68143225
2
Properties=species:S:1:pos:R:3:forces:R:3 energy=0.5814564090674827 pbc="F F F"
Na       0.00000000       0.00000000       0.00000000       0.00000000       0.00000000      -3.61637640
Na       0.00000000       0.00000000       1.94363636       0.00000000       0.00000000       3.61637640
2
Properties=species:S:1:pos:R:3:forces:R:3 energy=0.37182502332566575 pbc="F F F"
Na       0.00000000       0.00000000       0.00000000       0.00000000       0.00000000      -3.50649238
Na       0.00000000       0.00000000       2.00242424       0.00000000       0.00000000       3.50649238
2
Properties=species:S:1:pos:R:3:forces:R:3 energy=0.1703217656529097 pbc="F F F"
Na       0.00000000       0.00000000       0.00000000       0.00000000       0.00000000      -3.33865547
Na       0.00000000       0.00000000       2.06121212       0.00000000       0.00000000       3.33865547
2
Properties=species:S:1:pos:R:3:forces:R:3 energy=-0.019579463993202123 pbc="F F F"
Na       0.00000000       0.00000000       0.00000000       0.00000000       0.00000000      -3.11305881
Na       0.00000000       0.00000000       2.12000000       0.00000000       0.00000000       3.11305881
2
Properties=species:S:1:pos:R:3:forces:R:3 energy=-0.19481286757048594 pbc="F F F"
Na       0.00000000       0.00000000       0.00000000       0.00000000       0.00000000      -2.84245086
Na       0.00000000       0.00000000       2.17878788       0.00000000       0.00000000       2.84245086
2
Properties=species:S:1:pos:R:3:forces:R:3 energy=-0.35325955305816004 pbc="F F F"
Na       0.00000000       0.00000000       0.00000000       0.00000000       0.00000000      -2.54506969
Na       0.00000000       0.00000000       2.23757576       0.00000000       0.00000000       2.54506969
2
Properties=species:S:1:pos:R:3:forces:R:3 energy=-0.4938649838254636 pbc="F F F"
Na       0.00000000       0.00000000       0.00000000       0.00000000       0.00000000      -2.23806643
Na       0.00000000       0.00000000       2.29636364       0.00000000       0.00000000       2.23806643
2
Properties=species:S:1:pos:R:3:forces:R:3 energy=-0.6164732574203254 pbc="F F F"
Na       0.00000000       0.00000000       0.00000000       0.00000000       0.00000000      -1.93459475
Na       0.00000000       0.00000000       2.35515152       0.00000000       0.00000000       1.93459475
2
Properties=species:S:1:pos:R:3:forces:R:3 energy=-0.7215800271857356 pbc="F F F"
Na       0.00000000       0.00000000       0.00000000       0.00000000       0.00000000      -1.64395332
Na       0.00000000       0.00000000       2.41393939       0.00000000       0.00000000       1.64395332
2
Properties=species:S:1:pos:R:3:forces:R:3 energy=-0.8101439464258092 pbc="F F F"
Na       0.00000000       0.00000000       0.00000000       0.00000000       0.00000000      -1.37275028
Na       0.00000000       0.00000000       2.47272727       0.00000000       0.00000000       1.37275028
2
Properties=species:S:1:pos:R:3:forces:R:3 energy=-0.88345670998132 pbc="F F F"
Na       0.00000000       0.00000000       0.00000000       0.00000000       0.00000000      -1.12569356
Na       0.00000000       0.00000000       2.53151515       0.00000000       0.00000000       1.12569356
2
Properties=species:S:1:pos:R:3:forces:R:3 energy=-0.9430303864879278 pbc="F F F"
Na       0.00000000       0.00000000       0.00000000       0.00000000       0.00000000      -0.90572113
Na       0.00000000       0.00000000       2.59030303       0.00000000       0.00000000       0.90572113
2
Properties=species:S:1:pos:R:3:forces:R:3 energy=-0.9904986962453851 pbc="F F F"
Na       0.00000000       0.00000000       0.00000000       0.00000000       0.00000000      -0.71382922
Na       0.00000000       0.00000000       2.64909091       0.00000000       0.00000000       0.71382922
2
Properties=species:S:1:pos:R:3:forces:R:3 energy=-1.0274945511829878 pbc="F F F"
Na       0.00000000       0.00000000       0.00000000       0.00000000       0.00000000      -0.54920113
Na       0.00000000       0.00000000       2.70787879       0.00000000       0.00000000       0.54920113
2
Properties=species:S:1:pos:R:3:forces:R:3 energy=-1.0555655524803467 pbc="F F F"
Na       0.00000000       0.00000000       0.00000000       0.00000000       0.00000000      -0.40980658
Na       0.00000000       0.00000000       2.76666667       0.00000000       0.00000000       0.40980658
2
Properties=species:S:1:pos:R:3:forces:R:3 energy=-1.0761255775086465 pbc="F F F"
Na       0.00000000       0.00000000       0.00000000       0.00000000       0.00000000      -0.29326329
Na       0.00000000       0.00000000       2.82545455       0.00000000       0.00000000       0.29326329
2
Properties=species:S:1:pos:R:3:forces:R:3 energy=-1.0904516326238443 pbc="F F F"
Na       0.00000000       0.00000000       0.00000000       0.00000000       0.00000000      -0.19738305
Na       0.00000000       0.00000000       2.88424242       0.00000000       0.00000000       0.19738305
2
Properties=species:S:1:pos:R:3:forces:R:3 energy=-1.0996966690853058 pbc="F F F"
Na       0.00000000       0.00000000       0.00000000       0.00000000       0.00000000      -0.12004180
Na       0.00000000       0.00000000       2.94303030       0.00000000       0.00000000       0.12004180
2
Properties=species:S:1:pos:R:3:forces:R:3 energy=-1.104877858867858 pbc="F F F"
Na       0.00000000       0.00000000       0.00000000       0.00000000       0.00000000      -0.05859036
Na       0.00000000       0.00000000       3.00181818       0.00000000       0.00000000       0.05859036
2
Properties=species:S:1:pos:R:3:forces:R:3 energy=-1.1068272683665936 pbc="F F F"
Na       0.00000000       0.00000000       0.00000000       0.00000000       0.00000000      -0.00945016
Na       0.00000000       0.00000000       3.06060606       0.00000000       0.00000000       0.00945016
2
Properties=species:S:1:pos:R:3:forces:R:3 energy=-1.1061467756228847 pbc="F F F"
Na       0.00000000       0.00000000       0.00000000       0.00000000       0.00000000       0.03159824
Na       0.00000000       0.00000000       3.11939394       0.00000000       0.00000000      -0.03159824
2
Properties=species:S:1:pos:R:3:forces:R:3 energy=-1.1031938530131484 pbc="F F F"
Na       0.00000000       0.00000000       0.00000000       0.00000000       0.00000000       0.06843881
Na       0.00000000       0.00000000       3.17818182       0.00000000       0.00000000      -0.06843881
2
Properties=species:S:1:pos:R:3:forces:R:3 energy=-1.0981347047864536 pbc="F F F"
Na       0.00000000       0.00000000       0.00000000       0.00000000       0.00000000       0.10344858
Na       0.00000000       0.00000000       3.23696970       0.00000000       0.00000000      -0.10344858
2
Properties=species:S:1:pos:R:3:forces:R:3 energy=-1.0910622279777826 pbc="F F F"
Na       0.00000000       0.00000000       0.00000000       0.00000000       0.00000000       0.13677920
Na       0.00000000       0.00000000       3.29575758       0.00000000       0.00000000      -0.13677920
2
Properties=species:S:1:pos:R:3:forces:R:3 energy=-1.0821238917561047 pbc="F F F"
Na       0.00000000       0.00000000       0.00000000       0.00000000       0.00000000       0.16642298
Na       0.00000000       0.00000000       3.35454545       0.00000000       0.00000000      -0.16642298
2
Properties=species:S:1:pos:R:3:forces:R:3 energy=-1.0716348409181609 pbc="F F F"
Na       0.00000000       0.00000000       0.00000000       0.00000000       0.00000000       0.18887018
Na       0.00000000       0.00000000       3.41333333       0.00000000       0.00000000      -0.18887018
2
Properties=species:S:1:pos:R:3:forces:R:3 energy=-1.0601424023127055 pbc="F F F"
Na       0.00000000       0.00000000       0.00000000       0.00000000       0.00000000       0.19982579
Na       0.00000000       0.00000000       3.47212121       0.00000000       0.00000000      -0.19982579
2
Properties=species:S:1:pos:R:3:forces:R:3 energy=-1.0484545037306061 pbc="F F F"
Na       0.00000000       0.00000000       0.00000000       0.00000000       0.00000000       0.19479552
Na       0.00000000       0.00000000       3.53090909       0.00000000       0.00000000      -0.19479552
2
Properties=species:S:1:pos:R:3:forces:R:3 energy=-1.0376181950713093 pbc="F F F"
Na       0.00000000       0.00000000       0.00000000       0.00000000       0.00000000       0.17060065
Na       0.00000000       0.00000000       3.58969697       0.00000000       0.00000000      -0.17060065
2
Properties=species:S:1:pos:R:3:forces:R:3 energy=-1.0287241703969268 pbc="F F F"
Na       0.00000000       0.00000000       0.00000000       0.00000000       0.00000000       0.13011867
Na       0.00000000       0.00000000       3.64848485       0.00000000       0.00000000      -0.13011867
2
Properties=species:S:1:pos:R:3:forces:R:3 energy=-1.0223433274579767 pbc="F F F"
Na       0.00000000       0.00000000       0.00000000       0.00000000       0.00000000       0.08881679
Na       0.00000000       0.00000000       3.70727273       0.00000000       0.00000000      -0.08881679
2
Properties=species:S:1:pos:R:3:forces:R:3 energy=-1.017818332795428 pbc="F F F"
Na       0.00000000       0.00000000       0.00000000       0.00000000       0.00000000       0.07069992
Na       0.00000000       0.00000000       3.76606061       0.00000000       0.00000000      -0.07069992
2
Properties=species:S:1:pos:R:3:forces:R:3 energy=-1.0133198347511359 pbc="F F F"
Na       0.00000000       0.00000000       0.00000000       0.00000000       0.00000000       0.08797462
Na       0.00000000       0.00000000       3.82484848       0.00000000       0.00000000      -0.08797462
2
Properties=species:S:1:pos:R:3:forces:R:3 energy=-1.006979462071891 pbc="F F F"
Na       0.00000000       0.00000000       0.00000000       0.00000000       0.00000000       0.13022918
Na       0.00000000       0.00000000       3.88363636       0.00000000       0.00000000      -0.13022918
2
Properties=species:S:1:pos:R:3:forces:R:3 energy=-0.9979005634483964 pbc="F F F"
Na       0.00000000       0.00000000       0.00000000       0.00000000       0.00000000       0.17824069
Na       0.00000000       0.00000000       3.94242424       0.00000000       0.00000000      -0.17824069
2
Properties=species:S:1:pos:R:3:forces:R:3 energy=-0.9861653696641967 pbc="F F F"
Na       0.00000000       0.00000000       0.00000000       0.00000000       0.00000000       0.21931729
Na       0.00000000       0.00000000       4.00121212       0.00000000       0.00000000      -0.21931729
2
Properties=species:S:1:pos:R:3:forces:R:3 energy=-0.9723293082411048 pbc="F F F"
Na       0.00000000       0.00000000       0.00000000       0.00000000       0.00000000       0.24956219
Na       0.00000000       0.00000000       4.06000000       0.00000000       0.00000000      -0.24956219
2
Properties=species:S:1:pos:R:3:forces:R:3 energy=-0.9570196159569089 pbc="F F F"
Na       0.00000000       0.00000000       0.00000000       0.00000000       0.00000000       0.26978964
Na       0.00000000       0.00000000       4.11878788       0.00000000       0.00000000      -0.26978964
2
Properties=species:S:1:pos:R:3:forces:R:3 energy=-0.9407636858185696 pbc="F F F"
Na       0.00000000       0.00000000       0.00000000       0.00000000       0.00000000       0.28209773
Na       0.00000000       0.00000000       4.17757576       0.00000000       0.00000000      -0.28209773
2
Properties=species:S:1:pos:R:3:forces:R:3 energy=-0.9239691176450733 pbc="F F F"
Na       0.00000000       0.00000000       0.00000000       0.00000000       0.00000000       0.28838384
Na       0.00000000       0.00000000       4.23636364       0.00000000       0.00000000      -0.28838384
2
Properties=species:S:1:pos:R:3:forces:R:3 energy=-0.9069473566042418 pbc="F F F"
Na       0.00000000       0.00000000       0.00000000       0.00000000       0.00000000       0.29000744
Na       0.00000000       0.00000000       4.29515152       0.00000000       0.00000000      -0.29000744
2
Properties=species:S:1:pos:R:3:forces:R:3 energy=-0.8899445043709534 pbc="F F F"
Na       0.00000000       0.00000000       0.00000000       0.00000000       0.00000000       0.28789914
Na       0.00000000       0.00000000       4.35393939       0.00000000       0.00000000      -0.28789914
2
Properties=species:S:1:pos:R:3:forces:R:3 energy=-0.8731566676268216 pbc="F F F"
Na       0.00000000       0.00000000       0.00000000       0.00000000       0.00000000       0.28278935
Na       0.00000000       0.00000000       4.41272727       0.00000000       0.00000000      -0.28278935
2
Properties=species:S:1:pos:R:3:forces:R:3 energy=-0.8567391905751652 pbc="F F F"
Na       0.00000000       0.00000000       0.00000000       0.00000000       0.00000000       0.27543771
Na       0.00000000       0.00000000       4.47151515       0.00000000       0.00000000      -0.27543771
2
Properties=species:S:1:pos:R:3:forces:R:3 energy=-0.8407970770978276 pbc="F F F"
Na       0.00000000       0.00000000       0.00000000       0.00000000       0.00000000       0.26679015
Na       0.00000000       0.00000000       4.53030303       0.00000000       0.00000000      -0.26679015
2
Properties=species:S:1:pos:R:3:forces:R:3 energy=-0.8253734972832732 pbc="F F F"
Na       0.00000000       0.00000000       0.00000000       0.00000000       0.00000000       0.25802687
Na       0.00000000       0.00000000       4.58909091       0.00000000       0.00000000      -0.25802687
2
Properties=species:S:1:pos:R:3:forces:R:3 energy=-0.8104358397244367 pbc="F F F"
Na       0.00000000       0.00000000       0.00000000       0.00000000       0.00000000       0.25047210
Na       0.00000000       0.00000000       4.64787879       0.00000000       0.00000000      -0.25047210
2
Properties=species:S:1:pos:R:3:forces:R:3 energy=-0.7958757015357064 pbc="F F F"
Na       0.00000000       0.00000000       0.00000000       0.00000000       0.00000000       0.24536112
Na       0.00000000       0.00000000       4.70666667       0.00000000       0.00000000      -0.24536112
2
Properties=species:S:1:pos:R:3:forces:R:3 energy=-0.78152304226046 pbc="F F F"
Na       0.00000000       0.00000000       0.00000000       0.00000000       0.00000000       0.24351992
Na       0.00000000       0.00000000       4.76545455       0.00000000       0.00000000      -0.24351992
2
Properties=species:S:1:pos:R:3:forces:R:3 energy=-0.7671767206323068 pbc="F F F"
Na       0.00000000       0.00000000       0.00000000       0.00000000       0.00000000       0.24502942
Na       0.00000000       0.00000000       4.82424242       0.00000000       0.00000000      -0.24502942
2
Properties=species:S:1:pos:R:3:forces:R:3 energy=-0.7526655076446743 pbc="F F F"
Na       0.00000000       0.00000000       0.00000000       0.00000000       0.00000000       0.24897718
Na       0.00000000       0.00000000       4.88303030       0.00000000       0.00000000      -0.24897718
2
Properties=species:S:1:pos:R:3:forces:R:3 energy=-0.7378931828443365 pbc="F F F"
Na       0.00000000       0.00000000       0.00000000       0.00000000       0.00000000       0.25343513
Na       0.00000000       0.00000000       4.94181818       0.00000000       0.00000000      -0.25343513
2
Properties=species:S:1:pos:R:3:forces:R:3 energy=-0.722906898027183 pbc="F F F"
Na       0.00000000       0.00000000       0.00000000       0.00000000       0.00000000       0.25587955
Na       0.00000000       0.00000000       5.00060606       0.00000000       0.00000000      -0.25587955
2
Properties=species:S:1:pos:R:3:forces:R:3 energy=-0.707885773496192 pbc="F F F"
Na       0.00000000       0.00000000       0.00000000       0.00000000       0.00000000       0.25442159
Na       0.00000000       0.00000000       5.05939394       0.00000000       0.00000000      -0.25442159
2
Properties=species:S:1:pos:R:3:forces:R:3 energy=-0.6930553020397346 pbc="F F F"
Na       0.00000000       0.00000000       0.00000000       0.00000000       0.00000000       0.24995393
Na       0.00000000       0.00000000       5.11818182       0.00000000       0.00000000      -0.24995393
2
Properties=species:S:1:pos:R:3:forces:R:3 energy=-0.6784528717626256 pbc="F F F"
Na       0.00000000       0.00000000       0.00000000       0.00000000       0.00000000       0.24787879
Na       0.00000000       0.00000000       5.17696970       0.00000000       0.00000000      -0.24787879
2
Properties=species:S:1:pos:R:3:forces:R:3 energy=-0.6637197634668945 pbc="F F F"
Na       0.00000000       0.00000000       0.00000000       0.00000000       0.00000000       0.25532055
Na       0.00000000       0.00000000       5.23575758       0.00000000       0.00000000      -0.25532055
2
Properties=species:S:1:pos:R:3:forces:R:3 energy=-0.6482458974877733 pbc="F F F"
Na       0.00000000       0.00000000       0.00000000       0.00000000       0.00000000       0.27181384
Na       0.00000000       0.00000000       5.29454545       0.00000000       0.00000000      -0.27181384
2
Properties=species:S:1:pos:R:3:forces:R:3 energy=-0.6318484323265209 pbc="F F F"
Na       0.00000000       0.00000000       0.00000000       0.00000000       0.00000000       0.28374538
Na       0.00000000       0.00000000       5.35333333       0.00000000       0.00000000      -0.28374538
2
Properties=species:S:1:pos:R:3:forces:R:3 energy=-0.6152723866457387 pbc="F F F"
Na       0.00000000       0.00000000       0.00000000       0.00000000       0.00000000       0.27660736
Na       0.00000000       0.00000000       5.41212121       0.00000000       0.00000000      -0.27660736
2
Properties=species:S:1:pos:R:3:forces:R:3 energy=-0.5996481932363797 pbc="F F F"
Na       0.00000000       0.00000000       0.00000000       0.00000000       0.00000000       0.25373960
Na       0.00000000       0.00000000       5.47090909       0.00000000       0.00000000      -0.25373960
2
Properties=species:S:1:pos:R:3:forces:R:3 energy=-0.5853083703409275 pbc="F F F"
Na       0.00000000       0.00000000       0.00000000       0.00000000       0.00000000       0.23745883
Na       0.00000000       0.00000000       5.52969697       0.00000000       0.00000000      -0.23745883
2
Properties=species:S:1:pos:R:3:forces:R:3 energy=-0.5711434845471076 pbc="F F F"
Na       0.00000000       0.00000000       0.00000000       0.00000000       0.00000000       0.25014454
Na       0.00000000       0.00000000       5.58848485       0.00000000       0.00000000      -0.25014454
2
Properties=species:S:1:pos:R:3:forces:R:3 energy=-0.5553794581282249 pbc="F F F"
Na       0.00000000       0.00000000       0.00000000       0.00000000       0.00000000       0.28846857
Na       0.00000000       0.00000000       5.64727273       0.00000000       0.00000000      -0.28846857
2
Properties=species:S:1:pos:R:3:forces:R:3 energy=-0.5374264282644475 pbc="F F F"
Na       0.00000000       0.00000000       0.00000000       0.00000000       0.00000000       0.31653887
Na       0.00000000       0.00000000       5.70606061       0.00000000       0.00000000      -0.31653887
2
Properties=species:S:1:pos:R:3:forces:R:3 energy=-0.5190999376763832 pbc="F F F"
Na       0.00000000       0.00000000       0.00000000       0.00000000       0.00000000       0.29603910
Na       0.00000000       0.00000000       5.76484848       0.00000000       0.00000000      -0.29603910
2
Properties=species:S:1:pos:R:3:forces:R:3 energy=-0.5036543736180886 pbc="F F F"
Na       0.00000000       0.00000000       0.00000000       0.00000000       0.00000000       0.22288196
Na       0.00000000       0.00000000       5.82363636       0.00000000       0.00000000      -0.22288196
2
Properties=species:S:1:pos:R:3:forces:R:3 energy=-0.49334763367327006 pbc="F F F"
Na       0.00000000       0.00000000       0.00000000       0.00000000       0.00000000       0.12901515
Na       0.00000000       0.00000000       5.88242424       0.00000000       0.00000000      -0.12901515
2
Properties=species:S:1:pos:R:3:forces:R:3 energy=-0.48810270391685606 pbc="F F F"
Na       0.00000000       0.00000000       0.00000000       0.00000000       0.00000000       0.05468948
Na       0.00000000       0.00000000       5.94121212       0.00000000       0.00000000      -0.05468948
2
Properties=species:S:1:pos:R:3:forces:R:3 energy=-0.4859983915830012 pbc="F F F"
Na       0.00000000       0.00000000       0.00000000       0.00000000       0.00000000       0.02602784
Na       0.00000000       0.00000000       6.00000000       0.00000000       0.00000000      -0.02602784
