2
Properties=species:S:1:pos:R:3:forces:R:3 energy=933.2621152160981 pbc="F F F"
Na       0.00000000       0.00000000       0.00000000       0.00000000       0.00000000  -13144.87500000
Na       0.00000000       0.00000000       0.18000000       0.00000000       0.00000000   13144.87500000
2
Properties=species:S:1:pos:R:3:forces:R:3 energy=438.52481052859804 pbc="F F F"
Na       0.00000000       0.00000000       0.00000000       0.00000000       0.00000000   -5167.40869141
Na       0.00000000       0.00000000       0.23878788       0.00000000       0.00000000    5167.40869141
2
Properties=species:S:1:pos:R:3:forces:R:3 energy=229.99644443973085 pbc="F F F"
Na       0.00000000       0.00000000       0.00000000       0.00000000       0.00000000   -2361.63989258
Na       0.00000000       0.00000000       0.29757576       0.00000000       0.00000000    2361.63989258
2
Properties=species:S:1:pos:R:3:forces:R:3 energy=129.97691318973085 pbc="F F F"
Na       0.00000000       0.00000000       0.00000000       0.00000000       0.00000000   -1196.39550781
Na       0.00000000       0.00000000       0.35636364       0.00000000       0.00000000    1196.39550781
2
Properties=species:S:1:pos:R:3:forces:R:3 energy=77.52901432815258 pbc="F F F"
Na       0.00000000       0.00000000       0.00000000       0.00000000       0.00000000    -651.78399658
Na       0.00000000       0.00000000       0.41515152       0.00000000       0.00000000     651.78399658
2
Properties=species:S:1:pos:R:3:forces:R:3 energy=48.23072789174822 pbc="F F F"
Na       0.00000000       0.00000000       0.00000000       0.00000000       0.00000000    -374.21102905
Na       0.00000000       0.00000000       0.47393939       0.00000000       0.00000000     374.21102905
2
Properties=species:S:1:pos:R:3:forces:R:3 energy=31.09312032520488 pbc="F F F"
Na       0.00000000       0.00000000       0.00000000       0.00000000       0.00000000    -223.37046814
Na       0.00000000       0.00000000       0.53272727       0.00000000       0.00000000     223.37046814
2
Properties=species:S:1:pos:R:3:forces:R:3 energy=20.716985463855732 pbc="F F F"
Na       0.00000000       0.00000000       0.00000000       0.00000000       0.00000000    -137.33824158
Na       0.00000000       0.00000000       0.59151515       0.00000000       0.00000000     137.33824158
2
Properties=species:S:1:pos:R:3:forces:R:3 energy=14.267114418046333 pbc="F F F"
Na       0.00000000       0.00000000       0.00000000       0.00000000       0.00000000     -86.37116241
Na       0.00000000       0.00000000       0.65030303       0.00000000       0.00000000      86.37116241
2
Properties=species:S:1:pos:R:3:forces:R:3 energy=10.178002167925237 pbc="F F F"
Na       0.00000000       0.00000000       0.00000000       0.00000000       0.00000000     -55.21179199
Na       0.00000000       0.00000000       0.70909091       0.00000000       0.00000000      55.21179199
2
Properties=species:S:1:pos:R:3:forces:R:3 energy=7.550586078394132 pbc="F F F"
Na       0.00000000       0.00000000       0.00000000       0.00000000       0.00000000     -35.64743042
Na       0.00000000       0.00000000       0.76787879       0.00000000       0.00000000      35.64743042
2
Properties=species:S:1:pos:R:3:forces:R:3 energy=5.850409429067567 pbc="F F F"
Na       0.00000000       0.00000000       0.00000000       0.00000000       0.00000000     -23.10143471
Na       0.00000000       0.00000000       0.82666667       0.00000000       0.00000000      23.10143471
2
Properties=species:S:1:pos:R:3:forces:R:3 energy=4.749256627221128 pbc="F F F"
Na       0.00000000       0.00000000       0.00000000       0.00000000       0.00000000     -14.93518257
Na       0.00000000       0.00000000       0.88545455       0.00000000       0.00000000      14.93518257
2
Properties=species:S:1:pos:R:3:forces:R:3 energy=4.039717825238579 pbc="F F F"
Na       0.00000000       0.00000000       0.00000000       0.00000000       0.00000000      -9.57945347
Na       0.00000000       0.00000000       0.94424242       0.00000000       0.00000000       9.57945347
2
Properties=species:S:1:pos:R:3:forces:R:3 energy=3.586386301648094 pbc="F F F"
Na       0.00000000       0.00000000       0.00000000       0.00000000       0.00000000      -6.10178852
Na       0.00000000       0.00000000       1.00303030       0.00000000       0.00000000       6.10178852
2
Properties=species:S:1:pos:R:3:forces:R:3 energy=3.2965384611039927 pbc="F F F"
Na       0.00000000       0.00000000       0.00000000       0.00000000       0.00000000      -3.94428945
Na       0.00000000       0.00000000       1.06181818       0.00000000       0.00000000       3.94428945
2
Properties=species:S:1:pos:R:3:forces:R:3 energy=3.104137859829396 pbc="F F F"
Na       0.00000000       0.00000000       0.00000000       0.00000000       0.00000000      -2.73284245
Na       0.00000000       0.00000000       1.12060606       0.00000000       0.00000000       2.73284245
2
Properties=species:S:1:pos:R:3:forces:R:3 energy=2.962436117096738 pbc="F F F"
Na       0.00000000       0.00000000       0.00000000       0.00000000       0.00000000      -2.17605305
Na       0.00000000       0.00000000       1.17939394       0.00000000       0.00000000       2.17605305
2
Properties=species:S:1:pos:R:3:forces:R:3 energy=2.8399524706479378 pbc="F F F"
Na       0.00000000       0.00000000       0.00000000       0.00000000       0.00000000      -2.04670739
Na       0.00000000       0.00000000       1.23818182       0.00000000       0.00000000       2.04670739
2
Properties=species:S:1:pos:R:3:forces:R:3 energy=2.7167310739201036 pbc="F F F"
Na       0.00000000       0.00000000       0.00000000       0.00000000       0.00000000      -2.17695332
Na       0.00000000       0.00000000       1.29696970       0.00000000       0.00000000       2.17695332
2
Properties=species:S:1:pos:R:3:forces:R:3 energy=2.581515742218825 pbc="F F F"
Na       0.00000000       0.00000000       0.00000000       0.00000000       0.00000000      -2.43456364
Na       0.00000000       0.00000000       1.35575758       0.00000000       0.00000000       2.43456364
2
Properties=species:S:1:pos:R:3:forces:R:3 energy=2.430053844530355 pbc="F F F"
Na       0.00000000       0.00000000       0.00000000       0.00000000       0.00000000      -2.71629405
Na       0.00000000       0.00000000       1.41454545       0.00000000       0.00000000       2.71629405
2
Properties=species:S:1:pos:R:3:forces:R:3 energy=2.2625297259336716 pbc="F F F"
Na       0.00000000       0.00000000       0.00000000       0.00000000       0.00000000      -2.98105216
Na       0.00000000       0.00000000       1.47333333       0.00000000       0.00000000       2.98105216
2
Properties=species:S:1:pos:R:3:forces:R:3 energy=2.0795158785384413 pbc="F F F"
Na       0.00000000       0.00000000       0.00000000       0.00000000       0.00000000      -3.24581361
Na       0.00000000       0.00000000       1.53212121       0.00000000       0.00000000       3.24581361
2
Properties=species:S:1:pos:R:3:forces:R:3 energy=1.8812531668820878 pbc="F F F"
Na       0.00000000       0.00000000       0.00000000       0.00000000       0.00000000      -3.49086499
Na       0.00000000       0.00000000       1.59090909       0.00000000       0.00000000       3.49086499
2
Properties=species:S:1:pos:R:3:forces:R:3 energy=1.6706331996001316 pbc="F F F"
Na       0.00000000       0.00000000       0.00000000       0.00000000       0.00000000      -3.65834332
Na       0.00000000       0.00000000       1.64969697       0.00000000       0.00000000       3.65834332
2
Properties=species:S:1:pos:R:3:forces:R:3 energy=1.453001162013004 pbc="F F F"
Na       0.00000000       0.00000000       0.00000000       0.00000000       0.00000000      -3.73155141
Na       0.00000000       0.00000000       1.70848485       0.00000000       0.00000000       3.73155141
2
Properties=species:S:1:pos:R:3:forces:R:3 energy=1.2331540054219594 pbc="F F F"
Na       0.00000000       0.00000000       0.00000000       0.00000000       0.00000000      -3.74044657
Na       0.00000000       0.00000000       1.76727273       0.00000000       0.00000000       3.74044657
2
Properties=species:S:1:pos:R:3:forces:R:3 energy=1.0137814264364176 pbc="F F F"
Na       0.00000000       0.00000000       0.00000000       0.00000000       0.00000000      -3.71964145
Na       0.00000000       0.00000000       1.82606061       0.00000000       0.00000000       3.71964145
2
Properties=species:S:1:pos:R:3:forces:R:3 energy=0.7961398873844631 pbc="F F F"
Na       0.00000000       0.00000000       0.00000000       0.00000000       0.00000000      -3.68143129
Na       0.00000000       0.00000000       1.88484848       0.00000000       0.00000000       3.68143129
2
Properties=species:S:1:pos:R:3:forces:R:3 energy=0.5814560530235251 pbc="F F F"
Na       0.00000000       0.00000000       0.00000000       0.00000000       0.00000000      -3.61637735
Na       0.00000000       0.00000000       1.94363636       0.00000000       0.00000000       3.61637735
2
Properties=species:S:1:pos:R:3:forces:R:3 energy=0.3718243064860174 pbc="F F F"
Na       0.00000000       0.00000000       0.00000000       0.00000000       0.00000000      -3.50649333
Na       0.00000000       0.00000000       2.00242424       0.00000000       0.00000000       3.50649333
2
Properties=species:S:1:pos:R:3:forces:R:3 energy=0.1703203351414351 pbc="F F F"
Na       0.00000000       0.00000000       0.00000000       0.00000000       0.00000000      -3.33865690
Na       0.00000000       0.00000000       2.06121212       0.00000000       0.00000000       3.33865690
2
Properties=species:S:1:pos:R:3:forces:R:3 energy=-0.01957836130727378 pbc="F F F"
Na       0.00000000       0.00000000       0.00000000       0.00000000       0.00000000      -3.11305833
Na       0.00000000       0.00000000       2.12000000       0.00000000       0.00000000       3.11305833
2
Properties=species:S:1:pos:R:3:forces:R:3 energy=-0.19481304638442026 pbc="F F F"
Na       0.00000000       0.00000000       0.00000000       0.00000000       0.00000000      -2.84244871
Na       0.00000000       0.00000000       2.17878788       0.00000000       0.00000000       2.84244871
2
Properties=species:S:1:pos:R:3:forces:R:3 energy=-0.3532598510813839 pbc="F F F"
Na       0.00000000       0.00000000       0.00000000       0.00000000       0.00000000      -2.54506779
Na       0.00000000       0.00000000       2.23757576       0.00000000       0.00000000       2.54506779
2
Properties=species:S:1:pos:R:3:forces:R:3 energy=-0.4938662355230039 pbc="F F F"
Na       0.00000000       0.00000000       0.00000000       0.00000000       0.00000000      -2.23806357
Na       0.00000000       0.00000000       2.29636364       0.00000000       0.00000000       2.23806357
2
Properties=species:S:1:pos:R:3:forces:R:3 energy=-0.6164730190017463 pbc="F F F"
Na       0.00000000       0.00000000       0.00000000       0.00000000       0.00000000      -1.93459475
Na       0.00000000       0.00000000       2.35515152       0.00000000       0.00000000       1.93459475
2
Properties=species:S:1:pos:R:3:forces:R:3 energy=-0.7215803848136042 pbc="F F F"
Na       0.00000000       0.00000000       0.00000000       0.00000000       0.00000000      -1.64395225
Na       0.00000000       0.00000000       2.41393939       0.00000000       0.00000000       1.64395225
2
Properties=species:S:1:pos:R:3:forces:R:3 energy=-0.8101448404954809 pbc="F F F"
Na       0.00000000       0.00000000       0.00000000       0.00000000       0.00000000      -1.37274921
Na       0.00000000       0.00000000       2.47272727       0.00000000       0.00000000       1.37274921
2
Properties=species:S:1:pos:R:3:forces:R:3 energy=-0.8834568887952543 pbc="F F F"
Na       0.00000000       0.00000000       0.00000000       0.00000000       0.00000000      -1.12569308
Na       0.00000000       0.00000000       2.53151515       0.00000000       0.00000000       1.12569308
2
Properties=species:S:1:pos:R:3:forces:R:3 energy=-0.9430303864879278 pbc="F F F"
Na       0.00000000       0.00000000       0.00000000       0.00000000       0.00000000      -0.90572101
Na       0.00000000       0.00000000       2.59030303       0.00000000       0.00000000       0.90572101
2
Properties=species:S:1:pos:R:3:forces:R:3 energy=-0.9904991730825433 pbc="F F F"
Na       0.00000000       0.00000000       0.00000000       0.00000000       0.00000000      -0.71382874
Na       0.00000000       0.00000000       2.64909091       0.00000000       0.00000000       0.71382874
2
Properties=species:S:1:pos:R:3:forces:R:3 energy=-1.0274951472294356 pbc="F F F"
Na       0.00000000       0.00000000       0.00000000       0.00000000       0.00000000      -0.54920107
Na       0.00000000       0.00000000       2.70787879       0.00000000       0.00000000       0.54920107
2
Properties=species:S:1:pos:R:3:forces:R:3 energy=-1.0555653140617676 pbc="F F F"
Na       0.00000000       0.00000000       0.00000000       0.00000000       0.00000000      -0.40980533
Na       0.00000000       0.00000000       2.76666667       0.00000000       0.00000000       0.40980533
2
Properties=species:S:1:pos:R:3:forces:R:3 energy=-1.0761261735550942 pbc="F F F"
Na       0.00000000       0.00000000       0.00000000       0.00000000       0.00000000      -0.29326287
Na       0.00000000       0.00000000       2.82545455       0.00000000       0.00000000       0.29326287
2
Properties=species:S:1:pos:R:3:forces:R:3 energy=-1.090451990251713 pbc="F F F"
Na       0.00000000       0.00000000       0.00000000       0.00000000       0.00000000      -0.19738257
Na       0.00000000       0.00000000       2.88424242       0.00000000       0.00000000       0.19738257
2
Properties=species:S:1:pos:R:3:forces:R:3 energy=-1.0996970267131745 pbc="F F F"
Na       0.00000000       0.00000000       0.00000000       0.00000000       0.00000000      -0.12004130
Na       0.00000000       0.00000000       2.94303030       0.00000000       0.00000000       0.12004130
2
Properties=species:S:1:pos:R:3:forces:R:3 energy=-1.1048779812449698 pbc="F F F"
Na       0.00000000       0.00000000       0.00000000       0.00000000       0.00000000      -0.05859055
Na       0.00000000       0.00000000       3.00181818       0.00000000       0.00000000       0.05859055
2
Properties=species:S:1:pos:R:3:forces:R:3 energy=-1.1068273891597942 pbc="F F F"
Na       0.00000000       0.00000000       0.00000000       0.00000000       0.00000000      -0.00944900
Na       0.00000000       0.00000000       3.06060606       0.00000000       0.00000000       0.00944900
2
Properties=species:S:1:pos:R:3:forces:R:3 energy=-1.1061470140414638 pbc="F F F"
Na       0.00000000       0.00000000       0.00000000       0.00000000       0.00000000       0.03159901
Na       0.00000000       0.00000000       3.11939394       0.00000000       0.00000000      -0.03159901
2
Properties=species:S:1:pos:R:3:forces:R:3 energy=-1.103193969054616 pbc="F F F"
Na       0.00000000       0.00000000       0.00000000       0.00000000       0.00000000       0.06843879
Na       0.00000000       0.00000000       3.17818182       0.00000000       0.00000000      -0.06843879
2
Properties=species:S:1:pos:R:3:forces:R:3 energy=-1.0981348239957431 pbc="F F F"
Na       0.00000000       0.00000000       0.00000000       0.00000000       0.00000000       0.10344862
Na       0.00000000       0.00000000       3.23696970       0.00000000       0.00000000      -0.10344862
2
Properties=species:S:1:pos:R:3:forces:R:3 energy=-1.091062108768493 pbc="F F F"
Na       0.00000000       0.00000000       0.00000000       0.00000000       0.00000000       0.13677914
Na       0.00000000       0.00000000       3.29575758       0.00000000       0.00000000      -0.13677914
2
Properties=species:S:1:pos:R:3:forces:R:3 energy=-1.0821243717610851 pbc="F F F"
Na       0.00000000       0.00000000       0.00000000       0.00000000       0.00000000       0.16642369
Na       0.00000000       0.00000000       3.35454545       0.00000000       0.00000000      -0.16642369
2
Properties=species:S:1:pos:R:3:forces:R:3 energy=-1.0716349601274504 pbc="F F F"
Na       0.00000000       0.00000000       0.00000000       0.00000000       0.00000000       0.18887006
Na       0.00000000       0.00000000       3.41333333       0.00000000       0.00000000      -0.18887006
2
Properties=species:S:1:pos:R:3:forces:R:3 energy=-1.0601424023127055 pbc="F F F"
Na       0.00000000       0.00000000       0.00000000       0.00000000       0.00000000       0.19982624
Na       0.00000000       0.00000000       3.47212121       0.00000000       0.00000000      -0.19982624
2
Properties=species:S:1:pos:R:3:forces:R:3 energy=-1.0484545053145171 pbc="F F F"
Na       0.00000000       0.00000000       0.00000000       0.00000000       0.00000000       0.19479534
Na       0.00000000       0.00000000       3.53090909       0.00000000       0.00000000      -0.19479534
2
Properties=species:S:1:pos:R:3:forces:R:3 energy=-1.0376181950713093 pbc="F F F"
Na       0.00000000       0.00000000       0.00000000       0.00000000       0.00000000       0.17060010
Na       0.00000000       0.00000000       3.58969697       0.00000000       0.00000000      -0.17060010
2
Properties=species:S:1:pos:R:3:forces:R:3 energy=-1.0287239941668385 pbc="F F F"
Na       0.00000000       0.00000000       0.00000000       0.00000000       0.00000000       0.13011922
Na       0.00000000       0.00000000       3.64848485       0.00000000       0.00000000      -0.13011922
2
Properties=species:S:1:pos:R:3:forces:R:3 energy=-1.0223435658765558 pbc="F F F"
Na       0.00000000       0.00000000       0.00000000       0.00000000       0.00000000       0.08881652
Na       0.00000000       0.00000000       3.70727273       0.00000000       0.00000000      -0.08881652
2
Properties=species:S:1:pos:R:3:forces:R:3 energy=-1.017818332795428 pbc="F F F"
Na       0.00000000       0.00000000       0.00000000       0.00000000       0.00000000       0.07070032
Na       0.00000000       0.00000000       3.76606061       0.00000000       0.00000000      -0.07070032
2
Properties=species:S:1:pos:R:3:forces:R:3 energy=-1.0133197244613366 pbc="F F F"
Na       0.00000000       0.00000000       0.00000000       0.00000000       0.00000000       0.08797504
Na       0.00000000       0.00000000       3.82484848       0.00000000       0.00000000      -0.08797504
2
Properties=species:S:1:pos:R:3:forces:R:3 energy=-1.0069793428626015 pbc="F F F"
Na       0.00000000       0.00000000       0.00000000       0.00000000       0.00000000       0.13022920
Na       0.00000000       0.00000000       3.88363636       0.00000000       0.00000000      -0.13022920
2
Properties=species:S:1:pos:R:3:forces:R:3 energy=-0.9979008018669755 pbc="F F F"
Na       0.00000000       0.00000000       0.00000000       0.00000000       0.00000000       0.17824060
Na       0.00000000       0.00000000       3.94242424       0.00000000       0.00000000      -0.17824060
2
Properties=species:S:1:pos:R:3:forces:R:3 energy=-0.9861653163951961 pbc="F F F"
Na       0.00000000       0.00000000       0.00000000       0.00000000       0.00000000       0.21931720
Na       0.00000000       0.00000000       4.00121212       0.00000000       0.00000000      -0.21931720
2
Properties=species:S:1:pos:R:3:forces:R:3 energy=-0.9723294274503943 pbc="F F F"
Na       0.00000000       0.00000000       0.00000000       0.00000000       0.00000000       0.24956231
Na       0.00000000       0.00000000       4.06000000       0.00000000       0.00000000      -0.24956231
2
Properties=species:S:1:pos:R:3:forces:R:3 energy=-0.9570193775383298 pbc="F F F"
Na       0.00000000       0.00000000       0.00000000       0.00000000       0.00000000       0.26978981
Na       0.00000000       0.00000000       4.11878788       0.00000000       0.00000000      -0.26978981
2
Properties=species:S:1:pos:R:3:forces:R:3 energy=-0.9407635476023471 pbc="F F F"
Na       0.00000000       0.00000000       0.00000000       0.00000000       0.00000000       0.28209686
Na       0.00000000       0.00000000       4.17757576       0.00000000       0.00000000      -0.28209686
2
Properties=species:S:1:pos:R:3:forces:R:3 energy=-0.9239691049737847 pbc="F F F"
Na       0.00000000       0.00000000       0.00000000       0.00000000       0.00000000       0.28838402
Na       0.00000000       0.00000000       4.23636364       0.00000000       0.00000000      -0.28838402
2
Properties=species:S:1:pos:R:3:forces:R:3 energy=-0.9069474758135313 pbc="F F F"
Na       0.00000000       0.00000000       0.00000000       0.00000000       0.00000000       0.29000741
Na       0.00000000       0.00000000       4.29515152       0.00000000       0.00000000      -0.29000741
2
Properties=species:S:1:pos:R:3:forces:R:3 energy=-0.8899445043709534 pbc="F F F"
Na       0.00000000       0.00000000       0.00000000       0.00000000       0.00000000       0.28789929
Na       0.00000000       0.00000000       4.35393939       0.00000000       0.00000000      -0.28789929
2
Properties=species:S:1:pos:R:3:forces:R:3 energy=-0.8731569187166893 pbc="F F F"
Na       0.00000000       0.00000000       0.00000000       0.00000000       0.00000000       0.28278938
Na       0.00000000       0.00000000       4.41272727       0.00000000       0.00000000      -0.28278938
2
Properties=species:S:1:pos:R:3:forces:R:3 energy=-0.8567391905751652 pbc="F F F"
Na       0.00000000       0.00000000       0.00000000       0.00000000       0.00000000       0.27543756
Na       0.00000000       0.00000000       4.47151515       0.00000000       0.00000000      -0.27543756
2
Properties=species:S:1:pos:R:3:forces:R:3 energy=-0.8407971367024724 pbc="F F F"
Na       0.00000000       0.00000000       0.00000000       0.00000000       0.00000000       0.26678964
Na       0.00000000       0.00000000       4.53030303       0.00000000       0.00000000      -0.26678964
2
Properties=species:S:1:pos:R:3:forces:R:3 energy=-0.8253734566855614 pbc="F F F"
Na       0.00000000       0.00000000       0.00000000       0.00000000       0.00000000       0.25802669
Na       0.00000000       0.00000000       4.58909091       0.00000000       0.00000000      -0.25802669
2
Properties=species:S:1:pos:R:3:forces:R:3 energy=-0.8104358993290814 pbc="F F F"
Na       0.00000000       0.00000000       0.00000000       0.00000000       0.00000000       0.25047153
Na       0.00000000       0.00000000       4.64787879       0.00000000       0.00000000      -0.25047153
2
Properties=species:S:1:pos:R:3:forces:R:3 energy=-0.795875820744996 pbc="F F F"
Na       0.00000000       0.00000000       0.00000000       0.00000000       0.00000000       0.24536023
Na       0.00000000       0.00000000       4.70666667       0.00000000       0.00000000      -0.24536023
2
Properties=species:S:1:pos:R:3:forces:R:3 energy=-0.7815229230511704 pbc="F F F"
Na       0.00000000       0.00000000       0.00000000       0.00000000       0.00000000       0.24351925
Na       0.00000000       0.00000000       4.76545455       0.00000000       0.00000000      -0.24351925
2
Properties=species:S:1:pos:R:3:forces:R:3 energy=-0.767177197469465 pbc="F F F"
Na       0.00000000       0.00000000       0.00000000       0.00000000       0.00000000       0.24503087
Na       0.00000000       0.00000000       4.82424242       0.00000000       0.00000000      -0.24503087
2
Properties=species:S:1:pos:R:3:forces:R:3 energy=-0.7526656268539639 pbc="F F F"
Na       0.00000000       0.00000000       0.00000000       0.00000000       0.00000000       0.24897650
Na       0.00000000       0.00000000       4.88303030       0.00000000       0.00000000      -0.24897650
2
Properties=species:S:1:pos:R:3:forces:R:3 energy=-0.7378933616582708 pbc="F F F"
Na       0.00000000       0.00000000       0.00000000       0.00000000       0.00000000       0.25343415
Na       0.00000000       0.00000000       4.94181818       0.00000000       0.00000000      -0.25343415
2
Properties=species:S:1:pos:R:3:forces:R:3 energy=-0.7229061827714457 pbc="F F F"
Na       0.00000000       0.00000000       0.00000000       0.00000000       0.00000000       0.25587967
Na       0.00000000       0.00000000       5.00060606       0.00000000       0.00000000      -0.25587967
2
Properties=species:S:1:pos:R:3:forces:R:3 energy=-0.707885773496192 pbc="F F F"
Na       0.00000000       0.00000000       0.00000000       0.00000000       0.00000000       0.25442076
Na       0.00000000       0.00000000       5.05939394       0.00000000       0.00000000      -0.25442076
2
Properties=species:S:1:pos:R:3:forces:R:3 energy=-0.693054407970063 pbc="F F F"
Na       0.00000000       0.00000000       0.00000000       0.00000000       0.00000000       0.24995534
Na       0.00000000       0.00000000       5.11818182       0.00000000       0.00000000      -0.24995534
2
Properties=species:S:1:pos:R:3:forces:R:3 energy=-0.6784528844339142 pbc="F F F"
Na       0.00000000       0.00000000       0.00000000       0.00000000       0.00000000       0.24788001
Na       0.00000000       0.00000000       5.17696970       0.00000000       0.00000000      -0.24788001
2
Properties=species:S:1:pos:R:3:forces:R:3 energy=-0.6637197038622498 pbc="F F F"
Na       0.00000000       0.00000000       0.00000000       0.00000000       0.00000000       0.25532073
Na       0.00000000       0.00000000       5.23575758       0.00000000       0.00000000      -0.25532073
2
Properties=species:S:1:pos:R:3:forces:R:3 energy=-0.6482467319528001 pbc="F F F"
Na       0.00000000       0.00000000       0.00000000       0.00000000       0.00000000       0.27181014
Na       0.00000000       0.00000000       5.29454545       0.00000000       0.00000000      -0.27181014
2
Properties=species:S:1:pos:R:3:forces:R:3 energy=-0.6318485705427433 pbc="F F F"
Na       0.00000000       0.00000000       0.00000000       0.00000000       0.00000000       0.28374285
Na       0.00000000       0.00000000       5.35333333       0.00000000       0.00000000      -0.28374285
2
Properties=species:S:1:pos:R:3:forces:R:3 energy=-0.6152704792971059 pbc="F F F"
Na       0.00000000       0.00000000       0.00000000       0.00000000       0.00000000       0.27661273
Na       0.00000000       0.00000000       5.41212121       0.00000000       0.00000000      -0.27661273
2
Properties=species:S:1:pos:R:3:forces:R:3 energy=-0.5996482528410245 pbc="F F F"
Na       0.00000000       0.00000000       0.00000000       0.00000000       0.00000000       0.25373936
Na       0.00000000       0.00000000       5.47090909       0.00000000       0.00000000      -0.25373936
2
Properties=species:S:1:pos:R:3:forces:R:3 energy=-0.5853083893478604 pbc="F F F"
Na       0.00000000       0.00000000       0.00000000       0.00000000       0.00000000       0.23745894
Na       0.00000000       0.00000000       5.52969697       0.00000000       0.00000000      -0.23745894
2
Properties=species:S:1:pos:R:3:forces:R:3 energy=-0.5711434845471076 pbc="F F F"
Na       0.00000000       0.00000000       0.00000000       0.00000000       0.00000000       0.25014612
Na       0.00000000       0.00000000       5.58848485       0.00000000       0.00000000      -0.25014612
2
Properties=species:S:1:pos:R:3:forces:R:3 energy=-0.5553692657339683 pbc="F F F"
Na       0.00000000       0.00000000       0.00000000       0.00000000       0.00000000       0.28852972
Na       0.00000000       0.00000000       5.64727273       0.00000000       0.00000000      -0.28852972
2
Properties=species:S:1:pos:R:3:forces:R:3 energy=-0.5374265005403809 pbc="F F F"
Na       0.00000000       0.00000000       0.00000000       0.00000000       0.00000000       0.31654954
Na       0.00000000       0.00000000       5.70606061       0.00000000       0.00000000      -0.31654954
2
Properties=species:S:1:pos:R:3:forces:R:3 energy=-0.5190999376763832 pbc="F F F"
Na       0.00000000       0.00000000       0.00000000       0.00000000       0.00000000       0.29608393
Na       0.00000000       0.00000000       5.76484848       0.00000000       0.00000000      -0.29608393
2
Properties=species:S:1:pos:R:3:forces:R:3 energy=-0.503668082686387 pbc="F F F"
Na       0.00000000       0.00000000       0.00000000       0.00000000       0.00000000       0.22281568
Na       0.00000000       0.00000000       5.82363636       0.00000000       0.00000000      -0.22281568
2
Properties=species:S:1:pos:R:3:forces:R:3 energy=-0.49334764634455863 pbc="F F F"
Na       0.00000000       0.00000000       0.00000000       0.00000000       0.00000000       0.12905477
Na       0.00000000       0.00000000       5.88242424       0.00000000       0.00000000      -0.12905477
2
Properties=species:S:1:pos:R:3:forces:R:3 energy=-0.4881027007490339 pbc="F F F"
Na       0.00000000       0.00000000       0.00000000       0.00000000       0.00000000       0.05461732
Na       0.00000000       0.00000000       5.94121212       0.00000000       0.00000000      -0.05461732
2
Properties=species:S:1:pos:R:3:forces:R:3 energy=-0.4859983915830012 pbc="F F F"
Na       0.00000000       0.00000000       0.00000000       0.00000000       0.00000000       0.02602784
Na       0.00000000       0.00000000       6.00000000       0.00000000       0.00000000      -0.02602784
