2
Properties=species:S:1:pos:R:3:forces:R:3 energy=6555.14049899427 pbc="F F F"
Nb       0.00000000       0.00000000       0.00000000       0.00000000       0.00000000 -106757.48437500
Nb       0.00000000       0.00000000       0.18000000       0.00000000       0.00000000  106757.48437500
2
Properties=species:S:1:pos:R:3:forces:R:3 energy=2733.5560263380203 pbc="F F F"
Nb       0.00000000       0.00000000       0.00000000       0.00000000       0.00000000  -37411.76171875
Nb       0.00000000       0.00000000       0.23878788       0.00000000       0.00000000   37411.76171875
2
Properties=species:S:1:pos:R:3:forces:R:3 energy=1288.8576620802078 pbc="F F F"
Nb       0.00000000       0.00000000       0.00000000       0.00000000       0.00000000  -15450.33984375
Nb       0.00000000       0.00000000       0.29757576       0.00000000       0.00000000   15450.33984375
2
Properties=species:S:1:pos:R:3:forces:R:3 energy=663.0113486036453 pbc="F F F"
Nb       0.00000000       0.00000000       0.00000000       0.00000000       0.00000000   -7067.60742188
Nb       0.00000000       0.00000000       0.35636364       0.00000000       0.00000000    7067.60742188
2
Properties=species:S:1:pos:R:3:forces:R:3 energy=367.414760481551 pbc="F F F"
Nb       0.00000000       0.00000000       0.00000000       0.00000000       0.00000000   -3461.61694336
Nb       0.00000000       0.00000000       0.41515152       0.00000000       0.00000000    3461.61694336
2
Properties=species:S:1:pos:R:3:forces:R:3 energy=219.30672826765976 pbc="F F F"
Nb       0.00000000       0.00000000       0.00000000       0.00000000       0.00000000   -1779.17199707
Nb       0.00000000       0.00000000       0.47393939       0.00000000       0.00000000    1779.17199707
2
Properties=species:S:1:pos:R:3:forces:R:3 energy=141.9922904267914 pbc="F F F"
Nb       0.00000000       0.00000000       0.00000000       0.00000000       0.00000000    -943.70001221
Nb       0.00000000       0.00000000       0.53272727       0.00000000       0.00000000     943.70001221
2
Properties=species:S:1:pos:R:3:forces:R:3 energy=100.72090529727676 pbc="F F F"
Nb       0.00000000       0.00000000       0.00000000       0.00000000       0.00000000    -505.13394165
Nb       0.00000000       0.00000000       0.59151515       0.00000000       0.00000000     505.13394165
2
Properties=species:S:1:pos:R:3:forces:R:3 energy=78.81054312965215 pbc="F F F"
Nb       0.00000000       0.00000000       0.00000000       0.00000000       0.00000000    -263.40139771
Nb       0.00000000       0.00000000       0.65030303       0.00000000       0.00000000     263.40139771
2
Properties=species:S:1:pos:R:3:forces:R:3 energy=67.68744298827461 pbc="F F F"
Nb       0.00000000       0.00000000       0.00000000       0.00000000       0.00000000    -128.51457214
Nb       0.00000000       0.00000000       0.70909091       0.00000000       0.00000000     128.51457214
2
Properties=species:S:1:pos:R:3:forces:R:3 energy=62.439163619482024 pbc="F F F"
Nb       0.00000000       0.00000000       0.00000000       0.00000000       0.00000000     -58.27122879
Nb       0.00000000       0.00000000       0.76787879       0.00000000       0.00000000      58.27122879
2
Properties=species:S:1:pos:R:3:forces:R:3 energy=60.1450355056242 pbc="F F F"
Nb       0.00000000       0.00000000       0.00000000       0.00000000       0.00000000     -23.51783371
Nb       0.00000000       0.00000000       0.82666667       0.00000000       0.00000000      23.51783371
2
Properties=species:S:1:pos:R:3:forces:R:3 energy=59.392113872006895 pbc="F F F"
Nb       0.00000000       0.00000000       0.00000000       0.00000000       0.00000000      -3.82219625
Nb       0.00000000       0.00000000       0.88545455       0.00000000       0.00000000       3.82219625
2
Properties=species:S:1:pos:R:3:forces:R:3 energy=59.48706991822904 pbc="F F F"
Nb       0.00000000       0.00000000       0.00000000       0.00000000       0.00000000       5.02107763
Nb       0.00000000       0.00000000       0.94424242       0.00000000       0.00000000      -5.02107763
2
Properties=species:S:1:pos:R:3:forces:R:3 energy=59.70775098501485 pbc="F F F"
Nb       0.00000000       0.00000000       0.00000000       0.00000000       0.00000000      -0.08263502
Nb       0.00000000       0.00000000       1.00303030       0.00000000       0.00000000       0.08263502
2
Properties=species:S:1:pos:R:3:forces:R:3 energy=59.171962616677796 pbc="F F F"
Nb       0.00000000       0.00000000       0.00000000       0.00000000       0.00000000     -20.56962204
Nb       0.00000000       0.00000000       1.06181818       0.00000000       0.00000000      20.56962204
2
Properties=species:S:1:pos:R:3:forces:R:3 energy=57.065003802587704 pbc="F F F"
Nb       0.00000000       0.00000000       0.00000000       0.00000000       0.00000000     -52.34710312
Nb       0.00000000       0.00000000       1.12060606       0.00000000       0.00000000      52.34710312
2
Properties=species:S:1:pos:R:3:forces:R:3 energy=52.95320460016956 pbc="F F F"
Nb       0.00000000       0.00000000       0.00000000       0.00000000       0.00000000     -87.45697784
Nb       0.00000000       0.00000000       1.17939394       0.00000000       0.00000000      87.45697784
2
Properties=species:S:1:pos:R:3:forces:R:3 energy=46.85630999017621 pbc="F F F"
Nb       0.00000000       0.00000000       0.00000000       0.00000000       0.00000000    -118.81591034
Nb       0.00000000       0.00000000       1.23818182       0.00000000       0.00000000     118.81591034
2
Properties=species:S:1:pos:R:3:forces:R:3 energy=39.17195270453312 pbc="F F F"
Nb       0.00000000       0.00000000       0.00000000       0.00000000       0.00000000    -140.61340332
Nb       0.00000000       0.00000000       1.29696970       0.00000000       0.00000000     140.61340332
2
Properties=species:S:1:pos:R:3:forces:R:3 energy=30.585773224043127 pbc="F F F"
Nb       0.00000000       0.00000000       0.00000000       0.00000000       0.00000000    -149.15827942
Nb       0.00000000       0.00000000       1.35575758       0.00000000       0.00000000     149.15827942
2
Properties=species:S:1:pos:R:3:forces:R:3 energy=21.89792927943698 pbc="F F F"
Nb       0.00000000       0.00000000       0.00000000       0.00000000       0.00000000    -144.37156677
Nb       0.00000000       0.00000000       1.41454545       0.00000000       0.00000000     144.37156677
2
Properties=species:S:1:pos:R:3:forces:R:3 energy=13.817956678545826 pbc="F F F"
Nb       0.00000000       0.00000000       0.00000000       0.00000000       0.00000000    -129.02235413
Nb       0.00000000       0.00000000       1.47333333       0.00000000       0.00000000     129.02235413
2
Properties=species:S:1:pos:R:3:forces:R:3 energy=6.875611699629277 pbc="F F F"
Nb       0.00000000       0.00000000       0.00000000       0.00000000       0.00000000    -106.17501068
Nb       0.00000000       0.00000000       1.53212121       0.00000000       0.00000000     106.17501068
2
Properties=species:S:1:pos:R:3:forces:R:3 energy=1.4004468267484045 pbc="F F F"
Nb       0.00000000       0.00000000       0.00000000       0.00000000       0.00000000     -80.06822205
Nb       0.00000000       0.00000000       1.59090909       0.00000000       0.00000000      80.06822205
2
Properties=species:S:1:pos:R:3:forces:R:3 energy=-2.5990001177581057 pbc="F F F"
Nb       0.00000000       0.00000000       0.00000000       0.00000000       0.00000000     -56.90275955
Nb       0.00000000       0.00000000       1.64969697       0.00000000       0.00000000      56.90275955
2
Properties=species:S:1:pos:R:3:forces:R:3 energy=-5.406336525765486 pbc="F F F"
Nb       0.00000000       0.00000000       0.00000000       0.00000000       0.00000000     -39.51632309
Nb       0.00000000       0.00000000       1.70848485       0.00000000       0.00000000      39.51632309
2
Properties=species:S:1:pos:R:3:forces:R:3 energy=-7.334900020426754 pbc="F F F"
Nb       0.00000000       0.00000000       0.00000000       0.00000000       0.00000000     -26.74872971
Nb       0.00000000       0.00000000       1.76727273       0.00000000       0.00000000      26.74872971
2
Properties=species:S:1:pos:R:3:forces:R:3 energy=-8.623562511260845 pbc="F F F"
Nb       0.00000000       0.00000000       0.00000000       0.00000000       0.00000000     -17.68056488
Nb       0.00000000       0.00000000       1.82606061       0.00000000       0.00000000      17.68056488
2
Properties=species:S:1:pos:R:3:forces:R:3 energy=-9.47650328055274 pbc="F F F"
Nb       0.00000000       0.00000000       0.00000000       0.00000000       0.00000000     -11.79013824
Nb       0.00000000       0.00000000       1.88484848       0.00000000       0.00000000      11.79013824
2
Properties=species:S:1:pos:R:3:forces:R:3 energy=-10.05128938587545 pbc="F F F"
Nb       0.00000000       0.00000000       0.00000000       0.00000000       0.00000000      -8.02146912
Nb       0.00000000       0.00000000       1.94363636       0.00000000       0.00000000       8.02146912
2
Properties=species:S:1:pos:R:3:forces:R:3 energy=-10.441243251681723 pbc="F F F"
Nb       0.00000000       0.00000000       0.00000000       0.00000000       0.00000000      -5.37367153
Nb       0.00000000       0.00000000       2.00242424       0.00000000       0.00000000       5.37367153
2
Properties=species:S:1:pos:R:3:forces:R:3 energy=-10.694403195910823 pbc="F F F"
Nb       0.00000000       0.00000000       0.00000000       0.00000000       0.00000000      -3.31362438
Nb       0.00000000       0.00000000       2.06121212       0.00000000       0.00000000       3.31362438
2
Properties=species:S:1:pos:R:3:forces:R:3 energy=-10.838302952492333 pbc="F F F"
Nb       0.00000000       0.00000000       0.00000000       0.00000000       0.00000000      -1.63763952
Nb       0.00000000       0.00000000       2.12000000       0.00000000       0.00000000       1.63763952
2
Properties=species:S:1:pos:R:3:forces:R:3 energy=-10.892918180330025 pbc="F F F"
Nb       0.00000000       0.00000000       0.00000000       0.00000000       0.00000000      -0.26655605
Nb       0.00000000       0.00000000       2.17878788       0.00000000       0.00000000       0.26655605
2
Properties=species:S:1:pos:R:3:forces:R:3 energy=-10.874491185155264 pbc="F F F"
Nb       0.00000000       0.00000000       0.00000000       0.00000000       0.00000000       0.85764074
Nb       0.00000000       0.00000000       2.23757576       0.00000000       0.00000000      -0.85764074
2
Properties=species:S:1:pos:R:3:forces:R:3 energy=-10.795611934166716 pbc="F F F"
Nb       0.00000000       0.00000000       0.00000000       0.00000000       0.00000000       1.80160320
Nb       0.00000000       0.00000000       2.29636364       0.00000000       0.00000000      -1.80160320
2
Properties=species:S:1:pos:R:3:forces:R:3 energy=-10.664899664865178 pbc="F F F"
Nb       0.00000000       0.00000000       0.00000000       0.00000000       0.00000000       2.63055158
Nb       0.00000000       0.00000000       2.35515152       0.00000000       0.00000000      -2.63055158
2
Properties=species:S:1:pos:R:3:forces:R:3 energy=-10.487831494666294 pbc="F F F"
Nb       0.00000000       0.00000000       0.00000000       0.00000000       0.00000000       3.38076568
Nb       0.00000000       0.00000000       2.41393939       0.00000000       0.00000000      -3.38076568
2
Properties=species:S:1:pos:R:3:forces:R:3 energy=-10.269189171746076 pbc="F F F"
Nb       0.00000000       0.00000000       0.00000000       0.00000000       0.00000000       4.03820419
Nb       0.00000000       0.00000000       2.47272727       0.00000000       0.00000000      -4.03820419
2
Properties=species:S:1:pos:R:3:forces:R:3 energy=-10.016044673890093 pbc="F F F"
Nb       0.00000000       0.00000000       0.00000000       0.00000000       0.00000000       4.54158926
Nb       0.00000000       0.00000000       2.53151515       0.00000000       0.00000000      -4.54158926
2
Properties=species:S:1:pos:R:3:forces:R:3 energy=-9.739747332348282 pbc="F F F"
Nb       0.00000000       0.00000000       0.00000000       0.00000000       0.00000000       4.81436539
Nb       0.00000000       0.00000000       2.59030303       0.00000000       0.00000000      -4.81436539
2
Properties=species:S:1:pos:R:3:forces:R:3 energy=-9.455447671631587 pbc="F F F"
Nb       0.00000000       0.00000000       0.00000000       0.00000000       0.00000000       4.81096792
Nb       0.00000000       0.00000000       2.64909091       0.00000000       0.00000000      -4.81096792
2
Properties=species:S:1:pos:R:3:forces:R:3 energy=-9.179211111250721 pbc="F F F"
Nb       0.00000000       0.00000000       0.00000000       0.00000000       0.00000000       4.54848337
Nb       0.00000000       0.00000000       2.70787879       0.00000000       0.00000000      -4.54848337
2
Properties=species:S:1:pos:R:3:forces:R:3 energy=-8.924256403189029 pbc="F F F"
Nb       0.00000000       0.00000000       0.00000000       0.00000000       0.00000000       4.10306263
Nb       0.00000000       0.00000000       2.76666667       0.00000000       0.00000000      -4.10306263
2
Properties=species:S:1:pos:R:3:forces:R:3 energy=-8.698356934156196 pbc="F F F"
Nb       0.00000000       0.00000000       0.00000000       0.00000000       0.00000000       3.57718754
Nb       0.00000000       0.00000000       2.82545455       0.00000000       0.00000000      -3.57718754
2
Properties=species:S:1:pos:R:3:forces:R:3 energy=-8.503435124932713 pbc="F F F"
Nb       0.00000000       0.00000000       0.00000000       0.00000000       0.00000000       3.06192803
Nb       0.00000000       0.00000000       2.88424242       0.00000000       0.00000000      -3.06192803
2
Properties=species:S:1:pos:R:3:forces:R:3 energy=-8.336985585391377 pbc="F F F"
Nb       0.00000000       0.00000000       0.00000000       0.00000000       0.00000000       2.61503673
Nb       0.00000000       0.00000000       2.94303030       0.00000000       0.00000000      -2.61503673
2
Properties=species:S:1:pos:R:3:forces:R:3 energy=-8.194153379575338 pbc="F F F"
Nb       0.00000000       0.00000000       0.00000000       0.00000000       0.00000000       2.26010609
Nb       0.00000000       0.00000000       3.00181818       0.00000000       0.00000000      -2.26010609
2
Properties=species:S:1:pos:R:3:forces:R:3 energy=-8.069411170104889 pbc="F F F"
Nb       0.00000000       0.00000000       0.00000000       0.00000000       0.00000000       1.99889588
Nb       0.00000000       0.00000000       3.06060606       0.00000000       0.00000000      -1.99889588
2
Properties=species:S:1:pos:R:3:forces:R:3 energy=-7.95744430245409 pbc="F F F"
Nb       0.00000000       0.00000000       0.00000000       0.00000000       0.00000000       1.82365251
Nb       0.00000000       0.00000000       3.11939394       0.00000000       0.00000000      -1.82365251
2
Properties=species:S:1:pos:R:3:forces:R:3 energy=-7.853615847311857 pbc="F F F"
Nb       0.00000000       0.00000000       0.00000000       0.00000000       0.00000000       1.71817946
Nb       0.00000000       0.00000000       3.17818182       0.00000000       0.00000000      -1.71817946
2
Properties=species:S:1:pos:R:3:forces:R:3 energy=-7.754638888912875 pbc="F F F"
Nb       0.00000000       0.00000000       0.00000000       0.00000000       0.00000000       1.65273213
Nb       0.00000000       0.00000000       3.23696970       0.00000000       0.00000000      -1.65273213
2
Properties=species:S:1:pos:R:3:forces:R:3 energy=-7.6591952032302855 pbc="F F F"
Nb       0.00000000       0.00000000       0.00000000       0.00000000       0.00000000       1.59293652
Nb       0.00000000       0.00000000       3.29575758       0.00000000       0.00000000      -1.59293652
2
Properties=species:S:1:pos:R:3:forces:R:3 energy=-7.567664380873408 pbc="F F F"
Nb       0.00000000       0.00000000       0.00000000       0.00000000       0.00000000       1.51764226
Nb       0.00000000       0.00000000       3.35454545       0.00000000       0.00000000      -1.51764226
2
Properties=species:S:1:pos:R:3:forces:R:3 energy=-7.481146369630924 pbc="F F F"
Nb       0.00000000       0.00000000       0.00000000       0.00000000       0.00000000       1.42275047
Nb       0.00000000       0.00000000       3.41333333       0.00000000       0.00000000      -1.42275047
2
Properties=species:S:1:pos:R:3:forces:R:3 energy=-7.400661085796841 pbc="F F F"
Nb       0.00000000       0.00000000       0.00000000       0.00000000       0.00000000       1.31378019
Nb       0.00000000       0.00000000       3.47212121       0.00000000       0.00000000      -1.31378019
2
Properties=species:S:1:pos:R:3:forces:R:3 energy=-7.326780207563398 pbc="F F F"
Nb       0.00000000       0.00000000       0.00000000       0.00000000       0.00000000       1.19963562
Nb       0.00000000       0.00000000       3.53090909       0.00000000       0.00000000      -1.19963562
2
Properties=species:S:1:pos:R:3:forces:R:3 energy=-7.2595304245147405 pbc="F F F"
Nb       0.00000000       0.00000000       0.00000000       0.00000000       0.00000000       1.08964026
Nb       0.00000000       0.00000000       3.58969697       0.00000000       0.00000000      -1.08964026
2
Properties=species:S:1:pos:R:3:forces:R:3 energy=-7.198425807145349 pbc="F F F"
Nb       0.00000000       0.00000000       0.00000000       0.00000000       0.00000000       0.99174237
Nb       0.00000000       0.00000000       3.64848485       0.00000000       0.00000000      -0.99174237
2
Properties=species:S:1:pos:R:3:forces:R:3 energy=-7.1425847343002 pbc="F F F"
Nb       0.00000000       0.00000000       0.00000000       0.00000000       0.00000000       0.91114169
Nb       0.00000000       0.00000000       3.70727273       0.00000000       0.00000000      -0.91114169
2
Properties=species:S:1:pos:R:3:forces:R:3 energy=-7.09092281626923 pbc="F F F"
Nb       0.00000000       0.00000000       0.00000000       0.00000000       0.00000000       0.84950590
Nb       0.00000000       0.00000000       3.76606061       0.00000000       0.00000000      -0.84950590
2
Properties=species:S:1:pos:R:3:forces:R:3 energy=-7.04236564556418 pbc="F F F"
Nb       0.00000000       0.00000000       0.00000000       0.00000000       0.00000000       0.80502707
Nb       0.00000000       0.00000000       3.82484848       0.00000000       0.00000000      -0.80502707
2
Properties=species:S:1:pos:R:3:forces:R:3 energy=-6.996022244947237 pbc="F F F"
Nb       0.00000000       0.00000000       0.00000000       0.00000000       0.00000000       0.77324396
Nb       0.00000000       0.00000000       3.88363636       0.00000000       0.00000000      -0.77324396
2
Properties=species:S:1:pos:R:3:forces:R:3 energy=-6.951315426045066 pbc="F F F"
Nb       0.00000000       0.00000000       0.00000000       0.00000000       0.00000000       0.74835944
Nb       0.00000000       0.00000000       3.94242424       0.00000000       0.00000000      -0.74835944
2
Properties=species:S:1:pos:R:3:forces:R:3 energy=-6.908011281896706 pbc="F F F"
Nb       0.00000000       0.00000000       0.00000000       0.00000000       0.00000000       0.72466022
Nb       0.00000000       0.00000000       4.00121212       0.00000000       0.00000000      -0.72466022
2
Properties=species:S:1:pos:R:3:forces:R:3 energy=-6.866178560760449 pbc="F F F"
Nb       0.00000000       0.00000000       0.00000000       0.00000000       0.00000000       0.69768596
Nb       0.00000000       0.00000000       4.06000000       0.00000000       0.00000000      -0.69768596
2
Properties=species:S:1:pos:R:3:forces:R:3 energy=-6.826094657837757 pbc="F F F"
Nb       0.00000000       0.00000000       0.00000000       0.00000000       0.00000000       0.66493458
Nb       0.00000000       0.00000000       4.11878788       0.00000000       0.00000000      -0.66493458
2
Properties=species:S:1:pos:R:3:forces:R:3 energy=-6.788120004360032 pbc="F F F"
Nb       0.00000000       0.00000000       0.00000000       0.00000000       0.00000000       0.62601465
Nb       0.00000000       0.00000000       4.17757576       0.00000000       0.00000000      -0.62601465
2
Properties=species:S:1:pos:R:3:forces:R:3 energy=-6.752584681715278 pbc="F F F"
Nb       0.00000000       0.00000000       0.00000000       0.00000000       0.00000000       0.58230352
Nb       0.00000000       0.00000000       4.23636364       0.00000000       0.00000000      -0.58230352
2
Properties=species:S:1:pos:R:3:forces:R:3 energy=-6.719699691722803 pbc="F F F"
Nb       0.00000000       0.00000000       0.00000000       0.00000000       0.00000000       0.53630096
Nb       0.00000000       0.00000000       4.29515152       0.00000000       0.00000000      -0.53630096
2
Properties=species:S:1:pos:R:3:forces:R:3 energy=-6.689516602872819 pbc="F F F"
Nb       0.00000000       0.00000000       0.00000000       0.00000000       0.00000000       0.49091059
Nb       0.00000000       0.00000000       4.35393939       0.00000000       0.00000000      -0.49091059
2
Properties=species:S:1:pos:R:3:forces:R:3 energy=-6.661916654427719 pbc="F F F"
Nb       0.00000000       0.00000000       0.00000000       0.00000000       0.00000000       0.44880515
Nb       0.00000000       0.00000000       4.41272727       0.00000000       0.00000000      -0.44880515
2
Properties=species:S:1:pos:R:3:forces:R:3 energy=-6.6366432637122195 pbc="F F F"
Nb       0.00000000       0.00000000       0.00000000       0.00000000       0.00000000       0.41201895
Nb       0.00000000       0.00000000       4.47151515       0.00000000       0.00000000      -0.41201895
2
Properties=species:S:1:pos:R:3:forces:R:3 energy=-6.613344878101147 pbc="F F F"
Nb       0.00000000       0.00000000       0.00000000       0.00000000       0.00000000       0.38172740
Nb       0.00000000       0.00000000       4.53030303       0.00000000       0.00000000      -0.38172740
2
Properties=species:S:1:pos:R:3:forces:R:3 energy=-6.591628089341524 pbc="F F F"
Nb       0.00000000       0.00000000       0.00000000       0.00000000       0.00000000       0.35821414
Nb       0.00000000       0.00000000       4.58909091       0.00000000       0.00000000      -0.35821414
2
Properties=species:S:1:pos:R:3:forces:R:3 energy=-6.5711047517322125 pbc="F F F"
Nb       0.00000000       0.00000000       0.00000000       0.00000000       0.00000000       0.34096190
Nb       0.00000000       0.00000000       4.64787879       0.00000000       0.00000000      -0.34096190
2
Properties=species:S:1:pos:R:3:forces:R:3 energy=-6.55143851576044 pbc="F F F"
Nb       0.00000000       0.00000000       0.00000000       0.00000000       0.00000000       0.32879564
Nb       0.00000000       0.00000000       4.70666667       0.00000000       0.00000000      -0.32879564
2
Properties=species:S:1:pos:R:3:forces:R:3 energy=-6.5323780102979025 pbc="F F F"
Nb       0.00000000       0.00000000       0.00000000       0.00000000       0.00000000       0.32009691
Nb       0.00000000       0.00000000       4.76545455       0.00000000       0.00000000      -0.32009691
2
Properties=species:S:1:pos:R:3:forces:R:3 energy=-6.5137723881576575 pbc="F F F"
Nb       0.00000000       0.00000000       0.00000000       0.00000000       0.00000000       0.31296897
Nb       0.00000000       0.00000000       4.82424242       0.00000000       0.00000000      -0.31296897
2
Properties=species:S:1:pos:R:3:forces:R:3 energy=-6.495588842356092 pbc="F F F"
Nb       0.00000000       0.00000000       0.00000000       0.00000000       0.00000000       0.30545390
Nb       0.00000000       0.00000000       4.88303030       0.00000000       0.00000000      -0.30545390
2
Properties=species:S:1:pos:R:3:forces:R:3 energy=-6.477901322076066 pbc="F F F"
Nb       0.00000000       0.00000000       0.00000000       0.00000000       0.00000000       0.29575706
Nb       0.00000000       0.00000000       4.94181818       0.00000000       0.00000000      -0.29575706
2
Properties=species:S:1:pos:R:3:forces:R:3 energy=-6.460881898912915 pbc="F F F"
Nb       0.00000000       0.00000000       0.00000000       0.00000000       0.00000000       0.28261366
Nb       0.00000000       0.00000000       5.00060606       0.00000000       0.00000000      -0.28261366
2
Properties=species:S:1:pos:R:3:forces:R:3 energy=-6.44474399791004 pbc="F F F"
Nb       0.00000000       0.00000000       0.00000000       0.00000000       0.00000000       0.26587051
Nb       0.00000000       0.00000000       5.05939394       0.00000000       0.00000000      -0.26587051
2
Properties=species:S:1:pos:R:3:forces:R:3 energy=-6.429660052114199 pbc="F F F"
Nb       0.00000000       0.00000000       0.00000000       0.00000000       0.00000000       0.24725130
Nb       0.00000000       0.00000000       5.11818182       0.00000000       0.00000000      -0.24725130
2
Properties=species:S:1:pos:R:3:forces:R:3 energy=-6.41563664726779 pbc="F F F"
Nb       0.00000000       0.00000000       0.00000000       0.00000000       0.00000000       0.23056599
Nb       0.00000000       0.00000000       5.17696970       0.00000000       0.00000000      -0.23056599
2
Properties=species:S:1:pos:R:3:forces:R:3 energy=-6.402437655991709 pbc="F F F"
Nb       0.00000000       0.00000000       0.00000000       0.00000000       0.00000000       0.21954547
Nb       0.00000000       0.00000000       5.23575758       0.00000000       0.00000000      -0.21954547
2
Properties=species:S:1:pos:R:3:forces:R:3 energy=-6.389732063640044 pbc="F F F"
Nb       0.00000000       0.00000000       0.00000000       0.00000000       0.00000000       0.21296650
Nb       0.00000000       0.00000000       5.29454545       0.00000000       0.00000000      -0.21296650
2
Properties=species:S:1:pos:R:3:forces:R:3 energy=-6.377463523433325 pbc="F F F"
Nb       0.00000000       0.00000000       0.00000000       0.00000000       0.00000000       0.20306152
Nb       0.00000000       0.00000000       5.35333333       0.00000000       0.00000000      -0.20306152
2
Properties=species:S:1:pos:R:3:forces:R:3 energy=-6.366053425731472 pbc="F F F"
Nb       0.00000000       0.00000000       0.00000000       0.00000000       0.00000000       0.18345569
Nb       0.00000000       0.00000000       5.41212121       0.00000000       0.00000000      -0.18345569
2
Properties=species:S:1:pos:R:3:forces:R:3 energy=-6.356008619443708 pbc="F F F"
Nb       0.00000000       0.00000000       0.00000000       0.00000000       0.00000000       0.15827811
Nb       0.00000000       0.00000000       5.47090909       0.00000000       0.00000000      -0.15827811
2
Properties=species:S:1:pos:R:3:forces:R:3 energy=-6.34730389523739 pbc="F F F"
Nb       0.00000000       0.00000000       0.00000000       0.00000000       0.00000000       0.14016652
Nb       0.00000000       0.00000000       5.52969697       0.00000000       0.00000000      -0.14016652
2
Properties=species:S:1:pos:R:3:forces:R:3 energy=-6.339180782432009 pbc="F F F"
Nb       0.00000000       0.00000000       0.00000000       0.00000000       0.00000000       0.13927883
Nb       0.00000000       0.00000000       5.58848485       0.00000000       0.00000000      -0.13927883
2
Properties=species:S:1:pos:R:3:forces:R:3 energy=-6.330661804371098 pbc="F F F"
Nb       0.00000000       0.00000000       0.00000000       0.00000000       0.00000000       0.15140657
Nb       0.00000000       0.00000000       5.64727273       0.00000000       0.00000000      -0.15140657
2
Properties=species:S:1:pos:R:3:forces:R:3 energy=-6.321501673518192 pbc="F F F"
Nb       0.00000000       0.00000000       0.00000000       0.00000000       0.00000000       0.15757416
Nb       0.00000000       0.00000000       5.70606061       0.00000000       0.00000000      -0.15757416
2
Properties=species:S:1:pos:R:3:forces:R:3 energy=-6.312563645855349 pbc="F F F"
Nb       0.00000000       0.00000000       0.00000000       0.00000000       0.00000000       0.14198044
Nb       0.00000000       0.00000000       5.76484848       0.00000000       0.00000000      -0.14198044
2
Properties=species:S:1:pos:R:3:forces:R:3 energy=-6.305195546951509 pbc="F F F"
Nb       0.00000000       0.00000000       0.00000000       0.00000000       0.00000000       0.10681126
Nb       0.00000000       0.00000000       5.82363636       0.00000000       0.00000000      -0.10681126
2
Properties=species:S:1:pos:R:3:forces:R:3 energy=-6.300116201974801 pbc="F F F"
Nb       0.00000000       0.00000000       0.00000000       0.00000000       0.00000000       0.06682819
Nb       0.00000000       0.00000000       5.88242424       0.00000000       0.00000000      -0.06682819
2
Properties=species:S:1:pos:R:3:forces:R:3 energy=-6.297141975086039 pbc="F F F"
Nb       0.00000000       0.00000000       0.00000000       0.00000000       0.00000000       0.03660102
Nb       0.00000000       0.00000000       5.94121212       0.00000000       0.00000000      -0.03660102
2
Properties=species:S:1:pos:R:3:forces:R:3 energy=-6.295444741509136 pbc="F F F"
Nb       0.00000000       0.00000000       0.00000000       0.00000000       0.00000000       0.02468648
Nb       0.00000000       0.00000000       6.00000000       0.00000000       0.00000000      -0.02468648
