2
Properties=species:S:1:pos:R:3:forces:R:3 energy=30855.58434665052 pbc="F F F"
Nb       0.00000000       0.00000000       0.00000000       0.00000000       0.00000000 -727407.31250000
Nb       0.00000000       0.00000000       0.10000000       0.00000000       0.00000000  727407.31250000
2
Properties=species:S:1:pos:R:3:forces:R:3 energy=9255.403682588021 pbc="F F F"
Nb       0.00000000       0.00000000       0.00000000       0.00000000       0.00000000 -162621.15625000
Nb       0.00000000       0.00000000       0.15959596       0.00000000       0.00000000  162621.15625000
2
Properties=species:S:1:pos:R:3:forces:R:3 energy=3599.3704794630203 pbc="F F F"
Nb       0.00000000       0.00000000       0.00000000       0.00000000       0.00000000  -51885.00000000
Nb       0.00000000       0.00000000       0.21919192       0.00000000       0.00000000   51885.00000000
2
Properties=species:S:1:pos:R:3:forces:R:3 energy=1621.6721152052078 pbc="F F F"
Nb       0.00000000       0.00000000       0.00000000       0.00000000       0.00000000  -20224.71875000
Nb       0.00000000       0.00000000       0.27878788       0.00000000       0.00000000   20224.71875000
2
Properties=species:S:1:pos:R:3:forces:R:3 energy=805.8639487013015 pbc="F F F"
Nb       0.00000000       0.00000000       0.00000000       0.00000000       0.00000000   -8902.04589844
Nb       0.00000000       0.00000000       0.33838384       0.00000000       0.00000000    8902.04589844
2
Properties=species:S:1:pos:R:3:forces:R:3 energy=433.2880820084185 pbc="F F F"
Nb       0.00000000       0.00000000       0.00000000       0.00000000       0.00000000   -4239.71826172
Nb       0.00000000       0.00000000       0.39797980       0.00000000       0.00000000    4239.71826172
2
Properties=species:S:1:pos:R:3:forces:R:3 energy=251.2205618794882 pbc="F F F"
Nb       0.00000000       0.00000000       0.00000000       0.00000000       0.00000000   -2132.95312500
Nb       0.00000000       0.00000000       0.45757576       0.00000000       0.00000000    2132.95312500
2
Properties=species:S:1:pos:R:3:forces:R:3 energy=157.9578055571745 pbc="F F F"
Nb       0.00000000       0.00000000       0.00000000       0.00000000       0.00000000   -1113.87536621
Nb       0.00000000       0.00000000       0.51717172       0.00000000       0.00000000    1113.87536621
2
Properties=species:S:1:pos:R:3:forces:R:3 energy=108.79032513277403 pbc="F F F"
Nb       0.00000000       0.00000000       0.00000000       0.00000000       0.00000000    -591.36523438
Nb       0.00000000       0.00000000       0.57676768       0.00000000       0.00000000     591.36523438
2
Properties=species:S:1:pos:R:3:forces:R:3 energy=82.79158405889942 pbc="F F F"
Nb       0.00000000       0.00000000       0.00000000       0.00000000       0.00000000    -308.82281494
Nb       0.00000000       0.00000000       0.63636364       0.00000000       0.00000000     308.82281494
2
Properties=species:S:1:pos:R:3:forces:R:3 energy=69.52502077008496 pbc="F F F"
Nb       0.00000000       0.00000000       0.00000000       0.00000000       0.00000000    -151.91650391
Nb       0.00000000       0.00000000       0.69595960       0.00000000       0.00000000     151.91650391
2
Properties=species:S:1:pos:R:3:forces:R:3 energy=63.222549799265614 pbc="F F F"
Nb       0.00000000       0.00000000       0.00000000       0.00000000       0.00000000     -69.13356018
Nb       0.00000000       0.00000000       0.75555556       0.00000000       0.00000000      69.13356018
2
Properties=species:S:1:pos:R:3:forces:R:3 energy=60.44526736952586 pbc="F F F"
Nb       0.00000000       0.00000000       0.00000000       0.00000000       0.00000000     -28.72971153
Nb       0.00000000       0.00000000       0.81515152       0.00000000       0.00000000      28.72971153
2
Properties=species:S:1:pos:R:3:forces:R:3 energy=59.447922797968324 pbc="F F F"
Nb       0.00000000       0.00000000       0.00000000       0.00000000       0.00000000      -6.65420675
Nb       0.00000000       0.00000000       0.87474747       0.00000000       0.00000000       6.65420675
2
Properties=species:S:1:pos:R:3:forces:R:3 energy=59.44010325145307 pbc="F F F"
Nb       0.00000000       0.00000000       0.00000000       0.00000000       0.00000000       4.41714811
Nb       0.00000000       0.00000000       0.93434343       0.00000000       0.00000000      -4.41714811
2
Properties=species:S:1:pos:R:3:forces:R:3 energy=59.700022262634874 pbc="F F F"
Nb       0.00000000       0.00000000       0.00000000       0.00000000       0.00000000       1.72646749
Nb       0.00000000       0.00000000       0.99393939       0.00000000       0.00000000      -1.72646749
2
Properties=species:S:1:pos:R:3:forces:R:3 energy=59.32668655403786 pbc="F F F"
Nb       0.00000000       0.00000000       0.00000000       0.00000000       0.00000000     -16.83770180
Nb       0.00000000       0.00000000       1.05353535       0.00000000       0.00000000      16.83770180
2
Properties=species:S:1:pos:R:3:forces:R:3 energy=57.439812852312514 pbc="F F F"
Nb       0.00000000       0.00000000       0.00000000       0.00000000       0.00000000     -47.95402908
Nb       0.00000000       0.00000000       1.11313131       0.00000000       0.00000000      47.95402908
2
Properties=species:S:1:pos:R:3:forces:R:3 energy=53.52320786260092 pbc="F F F"
Nb       0.00000000       0.00000000       0.00000000       0.00000000       0.00000000     -83.54510498
Nb       0.00000000       0.00000000       1.17272727       0.00000000       0.00000000      83.54510498
2
Properties=species:S:1:pos:R:3:forces:R:3 energy=47.54428654856606 pbc="F F F"
Nb       0.00000000       0.00000000       0.00000000       0.00000000       0.00000000    -116.03435516
Nb       0.00000000       0.00000000       1.23232323       0.00000000       0.00000000     116.03435516
2
Properties=species:S:1:pos:R:3:forces:R:3 energy=39.87864414236555 pbc="F F F"
Nb       0.00000000       0.00000000       0.00000000       0.00000000       0.00000000    -139.23083496
Nb       0.00000000       0.00000000       1.29191919       0.00000000       0.00000000     139.23083496
2
Properties=species:S:1:pos:R:3:forces:R:3 energy=31.218257336960423 pbc="F F F"
Nb       0.00000000       0.00000000       0.00000000       0.00000000       0.00000000    -149.00920105
Nb       0.00000000       0.00000000       1.35151515       0.00000000       0.00000000     149.00920105
2
Properties=species:S:1:pos:R:3:forces:R:3 energy=22.394833316816776 pbc="F F F"
Nb       0.00000000       0.00000000       0.00000000       0.00000000       0.00000000    -144.97387695
Nb       0.00000000       0.00000000       1.41111111       0.00000000       0.00000000     144.97387695
2
Properties=species:S:1:pos:R:3:forces:R:3 energy=14.157960322713123 pbc="F F F"
Nb       0.00000000       0.00000000       0.00000000       0.00000000       0.00000000    -129.89012146
Nb       0.00000000       0.00000000       1.47070707       0.00000000       0.00000000     129.89012146
2
Properties=species:S:1:pos:R:3:forces:R:3 energy=7.069376126452333 pbc="F F F"
Nb       0.00000000       0.00000000       0.00000000       0.00000000       0.00000000    -106.96035004
Nb       0.00000000       0.00000000       1.53030303       0.00000000       0.00000000     106.96035004
2
Properties=species:S:1:pos:R:3:forces:R:3 energy=1.4815542657749248 pbc="F F F"
Nb       0.00000000       0.00000000       0.00000000       0.00000000       0.00000000     -80.50840759
Nb       0.00000000       0.00000000       1.58989899       0.00000000       0.00000000      80.50840759
2
Properties=species:S:1:pos:R:3:forces:R:3 energy=-2.587494803071556 pbc="F F F"
Nb       0.00000000       0.00000000       0.00000000       0.00000000       0.00000000     -56.97242355
Nb       0.00000000       0.00000000       1.64949495       0.00000000       0.00000000      56.97242355
2
Properties=species:S:1:pos:R:3:forces:R:3 energy=-5.430237823593665 pbc="F F F"
Nb       0.00000000       0.00000000       0.00000000       0.00000000       0.00000000     -39.36386108
Nb       0.00000000       0.00000000       1.70909091       0.00000000       0.00000000      39.36386108
2
Properties=species:S:1:pos:R:3:forces:R:3 energy=-7.372537300174231 pbc="F F F"
Nb       0.00000000       0.00000000       0.00000000       0.00000000       0.00000000     -26.48860931
Nb       0.00000000       0.00000000       1.76868687       0.00000000       0.00000000      26.48860931
2
Properties=species:S:1:pos:R:3:forces:R:3 energy=-8.662549801030407 pbc="F F F"
Nb       0.00000000       0.00000000       0.00000000       0.00000000       0.00000000     -17.40528679
Nb       0.00000000       0.00000000       1.82828283       0.00000000       0.00000000      17.40528679
2
Properties=species:S:1:pos:R:3:forces:R:3 energy=-9.511873730462945 pbc="F F F"
Nb       0.00000000       0.00000000       0.00000000       0.00000000       0.00000000     -11.55418873
Nb       0.00000000       0.00000000       1.88787879       0.00000000       0.00000000      11.55418873
2
Properties=species:S:1:pos:R:3:forces:R:3 energy=-10.081693445398274 pbc="F F F"
Nb       0.00000000       0.00000000       0.00000000       0.00000000       0.00000000      -7.82264042
Nb       0.00000000       0.00000000       1.94747475       0.00000000       0.00000000       7.82264042
2
Properties=species:S:1:pos:R:3:forces:R:3 energy=-10.465795752660435 pbc="F F F"
Nb       0.00000000       0.00000000       0.00000000       0.00000000       0.00000000      -5.19353867
Nb       0.00000000       0.00000000       2.00707071       0.00000000       0.00000000       5.19353867
2
Properties=species:S:1:pos:R:3:forces:R:3 energy=-10.712012010190742 pbc="F F F"
Nb       0.00000000       0.00000000       0.00000000       0.00000000       0.00000000      -3.14361978
Nb       0.00000000       0.00000000       2.06666667       0.00000000       0.00000000       3.14361978
2
Properties=species:S:1:pos:R:3:forces:R:3 energy=-10.84805442840012 pbc="F F F"
Nb       0.00000000       0.00000000       0.00000000       0.00000000       0.00000000      -1.47806513
Nb       0.00000000       0.00000000       2.12626263       0.00000000       0.00000000       1.47806513
2
Properties=species:S:1:pos:R:3:forces:R:3 energy=-10.894281165620953 pbc="F F F"
Nb       0.00000000       0.00000000       0.00000000       0.00000000       0.00000000      -0.11951509
Nb       0.00000000       0.00000000       2.18585859       0.00000000       0.00000000       0.11951509
2
Properties=species:S:1:pos:R:3:forces:R:3 energy=-10.867195286154217 pbc="F F F"
Nb       0.00000000       0.00000000       0.00000000       0.00000000       0.00000000       0.99305505
Nb       0.00000000       0.00000000       2.24545455       0.00000000       0.00000000      -0.99305505
2
Properties=species:S:1:pos:R:3:forces:R:3 energy=-10.779401461458919 pbc="F F F"
Nb       0.00000000       0.00000000       0.00000000       0.00000000       0.00000000       1.92999780
Nb       0.00000000       0.00000000       2.30505051       0.00000000       0.00000000      -1.92999780
2
Properties=species:S:1:pos:R:3:forces:R:3 energy=-10.63932056778601 pbc="F F F"
Nb       0.00000000       0.00000000       0.00000000       0.00000000       0.00000000       2.75675344
Nb       0.00000000       0.00000000       2.36464646       0.00000000       0.00000000      -2.75675344
2
Properties=species:S:1:pos:R:3:forces:R:3 energy=-10.452362698932228 pbc="F F F"
Nb       0.00000000       0.00000000       0.00000000       0.00000000       0.00000000       3.50392461
Nb       0.00000000       0.00000000       2.42424242       0.00000000       0.00000000      -3.50392461
2
Properties=species:S:1:pos:R:3:forces:R:3 energy=-10.22370589711803 pbc="F F F"
Nb       0.00000000       0.00000000       0.00000000       0.00000000       0.00000000       4.14753866
Nb       0.00000000       0.00000000       2.48383838       0.00000000       0.00000000      -4.14753866
2
Properties=species:S:1:pos:R:3:forces:R:3 energy=-9.961447320372784 pbc="F F F"
Nb       0.00000000       0.00000000       0.00000000       0.00000000       0.00000000       4.61775017
Nb       0.00000000       0.00000000       2.54343434       0.00000000       0.00000000      -4.61775017
2
Properties=species:S:1:pos:R:3:forces:R:3 energy=-9.67831358209826 pbc="F F F"
Nb       0.00000000       0.00000000       0.00000000       0.00000000       0.00000000       4.83752632
Nb       0.00000000       0.00000000       2.60303030       0.00000000       0.00000000      -4.83752632
2
Properties=species:S:1:pos:R:3:forces:R:3 energy=-9.39058156759434 pbc="F F F"
Nb       0.00000000       0.00000000       0.00000000       0.00000000       0.00000000       4.77150822
Nb       0.00000000       0.00000000       2.66262626       0.00000000       0.00000000      -4.77150822
2
Properties=species:S:1:pos:R:3:forces:R:3 energy=-9.11464385843719 pbc="F F F"
Nb       0.00000000       0.00000000       0.00000000       0.00000000       0.00000000       4.45289040
Nb       0.00000000       0.00000000       2.72222222       0.00000000       0.00000000      -4.45289040
2
Properties=species:S:1:pos:R:3:forces:R:3 energy=-8.863085206717425 pbc="F F F"
Nb       0.00000000       0.00000000       0.00000000       0.00000000       0.00000000       3.97112441
Nb       0.00000000       0.00000000       2.78181818       0.00000000       0.00000000      -3.97112441
2
Properties=species:S:1:pos:R:3:forces:R:3 energy=-8.642419727058149 pbc="F F F"
Nb       0.00000000       0.00000000       0.00000000       0.00000000       0.00000000       3.43315482
Nb       0.00000000       0.00000000       2.84141414       0.00000000       0.00000000      -3.43315482
2
Properties=species:S:1:pos:R:3:forces:R:3 energy=-8.453244767633414 pbc="F F F"
Nb       0.00000000       0.00000000       0.00000000       0.00000000       0.00000000       2.92590523
Nb       0.00000000       0.00000000       2.90101010       0.00000000       0.00000000      -2.92590523
2
Properties=species:S:1:pos:R:3:forces:R:3 energy=-8.292058363055842 pbc="F F F"
Nb       0.00000000       0.00000000       0.00000000       0.00000000       0.00000000       2.49892497
Nb       0.00000000       0.00000000       2.96060606       0.00000000       0.00000000      -2.49892497
2
Properties=species:S:1:pos:R:3:forces:R:3 energy=-8.153459665179865 pbc="F F F"
Nb       0.00000000       0.00000000       0.00000000       0.00000000       0.00000000       2.16859460
Nb       0.00000000       0.00000000       3.02020202       0.00000000       0.00000000      -2.16859460
2
Properties=species:S:1:pos:R:3:forces:R:3 energy=-8.031698303077286 pbc="F F F"
Nb       0.00000000       0.00000000       0.00000000       0.00000000       0.00000000       1.93278491
Nb       0.00000000       0.00000000       3.07979798       0.00000000       0.00000000      -1.93278491
2
Properties=species:S:1:pos:R:3:forces:R:3 energy=-7.921408654813159 pbc="F F F"
Nb       0.00000000       0.00000000       0.00000000       0.00000000       0.00000000       1.78114104
Nb       0.00000000       0.00000000       3.13939394       0.00000000       0.00000000      -1.78114104
2
Properties=species:S:1:pos:R:3:forces:R:3 energy=-7.81814029869984 pbc="F F F"
Nb       0.00000000       0.00000000       0.00000000       0.00000000       0.00000000       1.69231153
Nb       0.00000000       0.00000000       3.19898990       0.00000000       0.00000000      -1.69231153
2
Properties=species:S:1:pos:R:3:forces:R:3 energy=-7.719141318964309 pbc="F F F"
Nb       0.00000000       0.00000000       0.00000000       0.00000000       0.00000000       1.63162255
Nb       0.00000000       0.00000000       3.25858586       0.00000000       0.00000000      -1.63162255
2
Properties=species:S:1:pos:R:3:forces:R:3 energy=-7.623764337390678 pbc="F F F"
Nb       0.00000000       0.00000000       0.00000000       0.00000000       0.00000000       1.56657672
Nb       0.00000000       0.00000000       3.31818182       0.00000000       0.00000000      -1.56657672
2
Properties=species:S:1:pos:R:3:forces:R:3 energy=-7.532810383292716 pbc="F F F"
Nb       0.00000000       0.00000000       0.00000000       0.00000000       0.00000000       1.48230398
Nb       0.00000000       0.00000000       3.37777778       0.00000000       0.00000000      -1.48230398
2
Properties=species:S:1:pos:R:3:forces:R:3 energy=-7.447460961399641 pbc="F F F"
Nb       0.00000000       0.00000000       0.00000000       0.00000000       0.00000000       1.37942088
Nb       0.00000000       0.00000000       3.43737374       0.00000000       0.00000000      -1.37942088
2
Properties=species:S:1:pos:R:3:forces:R:3 energy=-7.368612946661576 pbc="F F F"
Nb       0.00000000       0.00000000       0.00000000       0.00000000       0.00000000       1.26561213
Nb       0.00000000       0.00000000       3.49696970       0.00000000       0.00000000      -1.26561213
2
Properties=species:S:1:pos:R:3:forces:R:3 energy=-7.296632115827146 pbc="F F F"
Nb       0.00000000       0.00000000       0.00000000       0.00000000       0.00000000       1.15060222
Nb       0.00000000       0.00000000       3.55656566       0.00000000       0.00000000      -1.15060222
2
Properties=species:S:1:pos:R:3:forces:R:3 energy=-7.231307852729905 pbc="F F F"
Nb       0.00000000       0.00000000       0.00000000       0.00000000       0.00000000       1.04368556
Nb       0.00000000       0.00000000       3.61616162       0.00000000       0.00000000      -1.04368556
2
Properties=species:S:1:pos:R:3:forces:R:3 energy=-7.171929173971013 pbc="F F F"
Nb       0.00000000       0.00000000       0.00000000       0.00000000       0.00000000       0.95201200
Nb       0.00000000       0.00000000       3.67575758       0.00000000       0.00000000      -0.95201200
2
Properties=species:S:1:pos:R:3:forces:R:3 energy=-7.117455038696734 pbc="F F F"
Nb       0.00000000       0.00000000       0.00000000       0.00000000       0.00000000       0.87936938
Nb       0.00000000       0.00000000       3.73535354       0.00000000       0.00000000      -0.87936938
2
Properties=species:S:1:pos:R:3:forces:R:3 energy=-7.066734952885922 pbc="F F F"
Nb       0.00000000       0.00000000       0.00000000       0.00000000       0.00000000       0.82573408
Nb       0.00000000       0.00000000       3.79494949       0.00000000       0.00000000      -0.82573408
2
Properties=species:S:1:pos:R:3:forces:R:3 energy=-7.018722376345587 pbc="F F F"
Nb       0.00000000       0.00000000       0.00000000       0.00000000       0.00000000       0.78773469
Nb       0.00000000       0.00000000       3.85454545       0.00000000       0.00000000      -0.78773469
2
Properties=species:S:1:pos:R:3:forces:R:3 energy=-6.972642920859002 pbc="F F F"
Nb       0.00000000       0.00000000       0.00000000       0.00000000       0.00000000       0.75984979
Nb       0.00000000       0.00000000       3.91414141       0.00000000       0.00000000      -0.75984979
2
Properties=species:S:1:pos:R:3:forces:R:3 energy=-6.928076193450671 pbc="F F F"
Nb       0.00000000       0.00000000       0.00000000       0.00000000       0.00000000       0.73591316
Nb       0.00000000       0.00000000       3.97373737       0.00000000       0.00000000      -0.73591316
2
Properties=species:S:1:pos:R:3:forces:R:3 energy=-6.884957092185443 pbc="F F F"
Nb       0.00000000       0.00000000       0.00000000       0.00000000       0.00000000       0.71053773
Nb       0.00000000       0.00000000       4.03333333       0.00000000       0.00000000      -0.71053773
2
Properties=species:S:1:pos:R:3:forces:R:3 energy=-6.843487266512548 pbc="F F F"
Nb       0.00000000       0.00000000       0.00000000       0.00000000       0.00000000       0.68012434
Nb       0.00000000       0.00000000       4.09292929       0.00000000       0.00000000      -0.68012434
2
Properties=species:S:1:pos:R:3:forces:R:3 energy=-6.804020479942654 pbc="F F F"
Nb       0.00000000       0.00000000       0.00000000       0.00000000       0.00000000       0.64329815
Nb       0.00000000       0.00000000       4.15252525       0.00000000       0.00000000      -0.64329815
2
Properties=species:S:1:pos:R:3:forces:R:3 energy=-6.766926207614211 pbc="F F F"
Nb       0.00000000       0.00000000       0.00000000       0.00000000       0.00000000       0.60076636
Nb       0.00000000       0.00000000       4.21212121       0.00000000       0.00000000      -0.60076636
2
Properties=species:S:1:pos:R:3:forces:R:3 energy=-6.732483875142825 pbc="F F F"
Nb       0.00000000       0.00000000       0.00000000       0.00000000       0.00000000       0.55472875
Nb       0.00000000       0.00000000       4.27171717       0.00000000       0.00000000      -0.55472875
2
Properties=species:S:1:pos:R:3:forces:R:3 energy=-6.700818217844011 pbc="F F F"
Nb       0.00000000       0.00000000       0.00000000       0.00000000       0.00000000       0.50812769
Nb       0.00000000       0.00000000       4.33131313       0.00000000       0.00000000      -0.50812769
2
Properties=species:S:1:pos:R:3:forces:R:3 energy=-6.671871986973571 pbc="F F F"
Nb       0.00000000       0.00000000       0.00000000       0.00000000       0.00000000       0.46390218
Nb       0.00000000       0.00000000       4.39090909       0.00000000       0.00000000      -0.46390218
2
Properties=species:S:1:pos:R:3:forces:R:3 energy=-6.645428692191374 pbc="F F F"
Nb       0.00000000       0.00000000       0.00000000       0.00000000       0.00000000       0.42446125
Nb       0.00000000       0.00000000       4.45050505       0.00000000       0.00000000      -0.42446125
2
Properties=species:S:1:pos:R:3:forces:R:3 energy=-6.621153145391092 pbc="F F F"
Nb       0.00000000       0.00000000       0.00000000       0.00000000       0.00000000       0.39136806
Nb       0.00000000       0.00000000       4.51010101       0.00000000       0.00000000      -0.39136806
2
Properties=species:S:1:pos:R:3:forces:R:3 energy=-6.598641587286439 pbc="F F F"
Nb       0.00000000       0.00000000       0.00000000       0.00000000       0.00000000       0.36523953
Nb       0.00000000       0.00000000       4.56969697       0.00000000       0.00000000      -0.36523953
2
Properties=species:S:1:pos:R:3:forces:R:3 energy=-6.577485741981487 pbc="F F F"
Nb       0.00000000       0.00000000       0.00000000       0.00000000       0.00000000       0.34579873
Nb       0.00000000       0.00000000       4.62929293       0.00000000       0.00000000      -0.34579873
2
Properties=species:S:1:pos:R:3:forces:R:3 energy=-6.557312910969652 pbc="F F F"
Nb       0.00000000       0.00000000       0.00000000       0.00000000       0.00000000       0.33202827
Nb       0.00000000       0.00000000       4.68888889       0.00000000       0.00000000      -0.33202827
2
Properties=species:S:1:pos:R:3:forces:R:3 energy=-6.537828863135355 pbc="F F F"
Nb       0.00000000       0.00000000       0.00000000       0.00000000       0.00000000       0.32235956
Nb       0.00000000       0.00000000       4.74848485       0.00000000       0.00000000      -0.32235956
2
Properties=species:S:1:pos:R:3:forces:R:3 energy=-6.518846459318642 pbc="F F F"
Nb       0.00000000       0.00000000       0.00000000       0.00000000       0.00000000       0.31488508
Nb       0.00000000       0.00000000       4.80808081       0.00000000       0.00000000      -0.31488508
2
Properties=species:S:1:pos:R:3:forces:R:3 energy=-6.500293859917173 pbc="F F F"
Nb       0.00000000       0.00000000       0.00000000       0.00000000       0.00000000       0.30756038
Nb       0.00000000       0.00000000       4.86767677       0.00000000       0.00000000      -0.30756038
2
Properties=species:S:1:pos:R:3:forces:R:3 energy=-6.482222772165938 pbc="F F F"
Nb       0.00000000       0.00000000       0.00000000       0.00000000       0.00000000       0.29844180
Nb       0.00000000       0.00000000       4.92727273       0.00000000       0.00000000      -0.29844180
2
Properties=species:S:1:pos:R:3:forces:R:3 energy=-6.4647882075646885 pbc="F F F"
Nb       0.00000000       0.00000000       0.00000000       0.00000000       0.00000000       0.28602546
Nb       0.00000000       0.00000000       4.98686869       0.00000000       0.00000000      -0.28602546
2
Properties=species:S:1:pos:R:3:forces:R:3 energy=-6.4482094065735565 pbc="F F F"
Nb       0.00000000       0.00000000       0.00000000       0.00000000       0.00000000       0.26980972
Nb       0.00000000       0.00000000       5.04646465       0.00000000       0.00000000      -0.26980972
2
Properties=species:S:1:pos:R:3:forces:R:3 energy=-6.432681726772924 pbc="F F F"
Nb       0.00000000       0.00000000       0.00000000       0.00000000       0.00000000       0.25108269
Nb       0.00000000       0.00000000       5.10606061       0.00000000       0.00000000      -0.25108269
2
Properties=species:S:1:pos:R:3:forces:R:3 energy=-6.4182595183205455 pbc="F F F"
Nb       0.00000000       0.00000000       0.00000000       0.00000000       0.00000000       0.23341784
Nb       0.00000000       0.00000000       5.16565657       0.00000000       0.00000000      -0.23341784
2
Properties=species:S:1:pos:R:3:forces:R:3 energy=-6.404751029707419 pbc="F F F"
Nb       0.00000000       0.00000000       0.00000000       0.00000000       0.00000000       0.22105309
Nb       0.00000000       0.00000000       5.22525253       0.00000000       0.00000000      -0.22105309
2
Properties=species:S:1:pos:R:3:forces:R:3 energy=-6.391801301395575 pbc="F F F"
Nb       0.00000000       0.00000000       0.00000000       0.00000000       0.00000000       0.21402851
Nb       0.00000000       0.00000000       5.28484848       0.00000000       0.00000000      -0.21402851
2
Properties=species:S:1:pos:R:3:forces:R:3 energy=-6.379277109621108 pbc="F F F"
Nb       0.00000000       0.00000000       0.00000000       0.00000000       0.00000000       0.20512185
Nb       0.00000000       0.00000000       5.34444444       0.00000000       0.00000000      -0.20512185
2
Properties=species:S:1:pos:R:3:forces:R:3 energy=-6.36754866944871 pbc="F F F"
Nb       0.00000000       0.00000000       0.00000000       0.00000000       0.00000000       0.18670209
Nb       0.00000000       0.00000000       5.40404040       0.00000000       0.00000000      -0.18670209
2
Properties=species:S:1:pos:R:3:forces:R:3 energy=-6.357167886899314 pbc="F F F"
Nb       0.00000000       0.00000000       0.00000000       0.00000000       0.00000000       0.16129883
Nb       0.00000000       0.00000000       5.46363636       0.00000000       0.00000000      -0.16129883
2
Properties=species:S:1:pos:R:3:forces:R:3 energy=-6.348215114218102 pbc="F F F"
Nb       0.00000000       0.00000000       0.00000000       0.00000000       0.00000000       0.14140746
Nb       0.00000000       0.00000000       5.52323232       0.00000000       0.00000000      -0.14140746
2
Properties=species:S:1:pos:R:3:forces:R:3 energy=-6.3399669147524875 pbc="F F F"
Nb       0.00000000       0.00000000       0.00000000       0.00000000       0.00000000       0.13858950
Nb       0.00000000       0.00000000       5.58282828       0.00000000       0.00000000      -0.13858950
2
Properties=species:S:1:pos:R:3:forces:R:3 energy=-6.331394780766608 pbc="F F F"
Nb       0.00000000       0.00000000       0.00000000       0.00000000       0.00000000       0.15031359
Nb       0.00000000       0.00000000       5.64242424       0.00000000       0.00000000      -0.15031359
2
Properties=species:S:1:pos:R:3:forces:R:3 energy=-6.322130486268382 pbc="F F F"
Nb       0.00000000       0.00000000       0.00000000       0.00000000       0.00000000       0.15779927
Nb       0.00000000       0.00000000       5.70202020       0.00000000       0.00000000      -0.15779927
2
Properties=species:S:1:pos:R:3:forces:R:3 energy=-6.313040697959882 pbc="F F F"
Nb       0.00000000       0.00000000       0.00000000       0.00000000       0.00000000       0.14340910
Nb       0.00000000       0.00000000       5.76161616       0.00000000       0.00000000      -0.14340910
2
Properties=species:S:1:pos:R:3:forces:R:3 energy=-6.305458809582418 pbc="F F F"
Nb       0.00000000       0.00000000       0.00000000       0.00000000       0.00000000       0.10845570
Nb       0.00000000       0.00000000       5.82121212       0.00000000       0.00000000      -0.10845570
2
Properties=species:S:1:pos:R:3:forces:R:3 energy=-6.300233365018081 pbc="F F F"
Nb       0.00000000       0.00000000       0.00000000       0.00000000       0.00000000       0.06786509
Nb       0.00000000       0.00000000       5.88080808       0.00000000       0.00000000      -0.06786509
2
Properties=species:S:1:pos:R:3:forces:R:3 energy=-6.297169189301226 pbc="F F F"
Nb       0.00000000       0.00000000       0.00000000       0.00000000       0.00000000       0.03693965
Nb       0.00000000       0.00000000       5.94040404       0.00000000       0.00000000      -0.03693965
2
Properties=species:S:1:pos:R:3:forces:R:3 energy=-6.295444741509136 pbc="F F F"
Nb       0.00000000       0.00000000       0.00000000       0.00000000       0.00000000       0.02468648
Nb       0.00000000       0.00000000       6.00000000       0.00000000       0.00000000      -0.02468648
