2
Properties=species:S:1:pos:R:3:forces:R:3 energy=56235.58217693838 pbc="F F F"
Nd       0.00000000       0.00000000       0.00000000       0.00000000       0.00000000 -1384581.87500000
Nd       0.00000000       0.00000000       0.10000000       0.00000000       0.00000000 1384581.87500000
2
Properties=species:S:1:pos:R:3:forces:R:3 energy=16000.012841000878 pbc="F F F"
Nd       0.00000000       0.00000000       0.00000000       0.00000000       0.00000000 -293591.43750000
Nd       0.00000000       0.00000000       0.15959596       0.00000000       0.00000000  293591.43750000
2
Properties=species:S:1:pos:R:3:forces:R:3 energy=5953.775536313378 pbc="F F F"
Nd       0.00000000       0.00000000       0.00000000       0.00000000       0.00000000  -90090.23437500
Nd       0.00000000       0.00000000       0.21919192       0.00000000       0.00000000   90090.23437500
2
Properties=species:S:1:pos:R:3:forces:R:3 energy=2573.2921378758783 pbc="F F F"
Nd       0.00000000       0.00000000       0.00000000       0.00000000       0.00000000  -33820.14453125
Nd       0.00000000       0.00000000       0.27878788       0.00000000       0.00000000   33820.14453125
2
Properties=species:S:1:pos:R:3:forces:R:3 energy=1231.8159415868158 pbc="F F F"
Nd       0.00000000       0.00000000       0.00000000       0.00000000       0.00000000  -14314.90332031
Nd       0.00000000       0.00000000       0.33838384       0.00000000       0.00000000   14314.90332031
2
Properties=species:S:1:pos:R:3:forces:R:3 energy=642.6354606297847 pbc="F F F"
Nd       0.00000000       0.00000000       0.00000000       0.00000000       0.00000000   -6566.41748047
Nd       0.00000000       0.00000000       0.39797980       0.00000000       0.00000000    6566.41748047
2
Properties=species:S:1:pos:R:3:forces:R:3 energy=364.6867912088622 pbc="F F F"
Nd       0.00000000       0.00000000       0.00000000       0.00000000       0.00000000   -3203.37548828
Nd       0.00000000       0.00000000       0.45757576       0.00000000       0.00000000    3203.37548828
2
Properties=species:S:1:pos:R:3:forces:R:3 energy=225.8534477156741 pbc="F F F"
Nd       0.00000000       0.00000000       0.00000000       0.00000000       0.00000000   -1646.11804199
Nd       0.00000000       0.00000000       0.51717172       0.00000000       0.00000000    1646.11804199
2
Properties=species:S:1:pos:R:3:forces:R:3 energy=152.999764269337 pbc="F F F"
Nd       0.00000000       0.00000000       0.00000000       0.00000000       0.00000000    -885.65649414
Nd       0.00000000       0.00000000       0.57676768       0.00000000       0.00000000     885.65649414
2
Properties=species:S:1:pos:R:3:forces:R:3 energy=113.06050192988543 pbc="F F F"
Nd       0.00000000       0.00000000       0.00000000       0.00000000       0.00000000    -496.27645874
Nd       0.00000000       0.00000000       0.63636364       0.00000000       0.00000000     496.27645874
2
Properties=species:S:1:pos:R:3:forces:R:3 energy=90.31449980864754 pbc="F F F"
Nd       0.00000000       0.00000000       0.00000000       0.00000000       0.00000000    -287.85214233
Nd       0.00000000       0.00000000       0.69595960       0.00000000       0.00000000     287.85214233
2
Properties=species:S:1:pos:R:3:forces:R:3 energy=76.95256906284988 pbc="F F F"
Nd       0.00000000       0.00000000       0.00000000       0.00000000       0.00000000    -171.35685730
Nd       0.00000000       0.00000000       0.75555556       0.00000000       0.00000000     171.35685730
2
Properties=species:S:1:pos:R:3:forces:R:3 energy=68.94217800489635 pbc="F F F"
Nd       0.00000000       0.00000000       0.00000000       0.00000000       0.00000000    -103.24206543
Nd       0.00000000       0.00000000       0.81515152       0.00000000       0.00000000     103.24206543
2
Properties=species:S:1:pos:R:3:forces:R:3 energy=64.13334797174907 pbc="F F F"
Nd       0.00000000       0.00000000       0.00000000       0.00000000       0.00000000     -61.32630539
Nd       0.00000000       0.00000000       0.87474747       0.00000000       0.00000000      61.32630539
2
Properties=species:S:1:pos:R:3:forces:R:3 energy=61.337167576104925 pbc="F F F"
Nd       0.00000000       0.00000000       0.00000000       0.00000000       0.00000000     -34.50941849
Nd       0.00000000       0.00000000       0.93434343       0.00000000       0.00000000      34.50941849
2
Properties=species:S:1:pos:R:3:forces:R:3 energy=59.80749350224202 pbc="F F F"
Nd       0.00000000       0.00000000       0.00000000       0.00000000       0.00000000     -18.49972534
Nd       0.00000000       0.00000000       0.99393939       0.00000000       0.00000000      18.49972534
2
Properties=species:S:1:pos:R:3:forces:R:3 energy=58.942046137759576 pbc="F F F"
Nd       0.00000000       0.00000000       0.00000000       0.00000000       0.00000000     -12.03147316
Nd       0.00000000       0.00000000       1.05353535       0.00000000       0.00000000      12.03147316
2
Properties=species:S:1:pos:R:3:forces:R:3 energy=58.21429047382048 pbc="F F F"
Nd       0.00000000       0.00000000       0.00000000       0.00000000       0.00000000     -13.55675220
Nd       0.00000000       0.00000000       1.11313131       0.00000000       0.00000000      13.55675220
2
Properties=species:S:1:pos:R:3:forces:R:3 energy=57.20637606672513 pbc="F F F"
Nd       0.00000000       0.00000000       0.00000000       0.00000000       0.00000000     -21.13055611
Nd       0.00000000       0.00000000       1.17272727       0.00000000       0.00000000      21.13055611
2
Properties=species:S:1:pos:R:3:forces:R:3 energy=55.607904916037185 pbc="F F F"
Nd       0.00000000       0.00000000       0.00000000       0.00000000       0.00000000     -33.12961960
Nd       0.00000000       0.00000000       1.23232323       0.00000000       0.00000000      33.12961960
2
Properties=species:S:1:pos:R:3:forces:R:3 energy=53.19942135344766 pbc="F F F"
Nd       0.00000000       0.00000000       0.00000000       0.00000000       0.00000000     -48.05184555
Nd       0.00000000       0.00000000       1.29191919       0.00000000       0.00000000      48.05184555
2
Properties=species:S:1:pos:R:3:forces:R:3 energy=49.85589873943214 pbc="F F F"
Nd       0.00000000       0.00000000       0.00000000       0.00000000       0.00000000     -64.20272827
Nd       0.00000000       0.00000000       1.35151515       0.00000000       0.00000000      64.20272827
2
Properties=species:S:1:pos:R:3:forces:R:3 energy=45.5617465456502 pbc="F F F"
Nd       0.00000000       0.00000000       0.00000000       0.00000000       0.00000000     -79.60611725
Nd       0.00000000       0.00000000       1.41111111       0.00000000       0.00000000      79.60611725
2
Properties=species:S:1:pos:R:3:forces:R:3 energy=40.42378022427819 pbc="F F F"
Nd       0.00000000       0.00000000       0.00000000       0.00000000       0.00000000     -92.18141174
Nd       0.00000000       0.00000000       1.47070707       0.00000000       0.00000000      92.18141174
2
Properties=species:S:1:pos:R:3:forces:R:3 energy=34.67071774399794 pbc="F F F"
Nd       0.00000000       0.00000000       0.00000000       0.00000000       0.00000000     -99.89750671
Nd       0.00000000       0.00000000       1.53030303       0.00000000       0.00000000      99.89750671
2
Properties=species:S:1:pos:R:3:forces:R:3 energy=28.6589778284702 pbc="F F F"
Nd       0.00000000       0.00000000       0.00000000       0.00000000       0.00000000    -100.46834564
Nd       0.00000000       0.00000000       1.58989899       0.00000000       0.00000000     100.46834564
2
Properties=species:S:1:pos:R:3:forces:R:3 energy=22.869555871329517 pbc="F F F"
Nd       0.00000000       0.00000000       0.00000000       0.00000000       0.00000000     -92.44168091
Nd       0.00000000       0.00000000       1.64949495       0.00000000       0.00000000      92.44168091
2
Properties=species:S:1:pos:R:3:forces:R:3 energy=17.762611364403043 pbc="F F F"
Nd       0.00000000       0.00000000       0.00000000       0.00000000       0.00000000     -78.41049194
Nd       0.00000000       0.00000000       1.70909091       0.00000000       0.00000000      78.41049194
2
Properties=species:S:1:pos:R:3:forces:R:3 energy=13.527874238997015 pbc="F F F"
Nd       0.00000000       0.00000000       0.00000000       0.00000000       0.00000000     -64.05164337
Nd       0.00000000       0.00000000       1.76868687       0.00000000       0.00000000      64.05164337
2
Properties=species:S:1:pos:R:3:forces:R:3 energy=10.069744658377243 pbc="F F F"
Nd       0.00000000       0.00000000       0.00000000       0.00000000       0.00000000     -52.50037766
Nd       0.00000000       0.00000000       1.82828283       0.00000000       0.00000000      52.50037766
2
Properties=species:S:1:pos:R:3:forces:R:3 energy=7.22156687133732 pbc="F F F"
Nd       0.00000000       0.00000000       0.00000000       0.00000000       0.00000000     -43.39232635
Nd       0.00000000       0.00000000       1.88787879       0.00000000       0.00000000      43.39232635
2
Properties=species:S:1:pos:R:3:forces:R:3 energy=4.868736295393444 pbc="F F F"
Nd       0.00000000       0.00000000       0.00000000       0.00000000       0.00000000     -35.77072906
Nd       0.00000000       0.00000000       1.94747475       0.00000000       0.00000000      35.77072906
2
Properties=species:S:1:pos:R:3:forces:R:3 energy=2.935665561203072 pbc="F F F"
Nd       0.00000000       0.00000000       0.00000000       0.00000000       0.00000000     -29.27608299
Nd       0.00000000       0.00000000       2.00707071       0.00000000       0.00000000      29.27608299
2
Properties=species:S:1:pos:R:3:forces:R:3 energy=1.3603607473824246 pbc="F F F"
Nd       0.00000000       0.00000000       0.00000000       0.00000000       0.00000000     -23.73155785
Nd       0.00000000       0.00000000       2.06666667       0.00000000       0.00000000      23.73155785
2
Properties=species:S:1:pos:R:3:forces:R:3 energy=0.09196505525631185 pbc="F F F"
Nd       0.00000000       0.00000000       0.00000000       0.00000000       0.00000000     -18.94876671
Nd       0.00000000       0.00000000       2.12626263       0.00000000       0.00000000      18.94876671
2
Properties=species:S:1:pos:R:3:forces:R:3 energy=-0.9106183386204212 pbc="F F F"
Nd       0.00000000       0.00000000       0.00000000       0.00000000       0.00000000     -14.79504967
Nd       0.00000000       0.00000000       2.18585859       0.00000000       0.00000000      14.79504967
2
Properties=species:S:1:pos:R:3:forces:R:3 energy=-1.6827070978735081 pbc="F F F"
Nd       0.00000000       0.00000000       0.00000000       0.00000000       0.00000000     -11.20856667
Nd       0.00000000       0.00000000       2.24545455       0.00000000       0.00000000      11.20856667
2
Properties=species:S:1:pos:R:3:forces:R:3 energy=-2.257893154264395 pbc="F F F"
Nd       0.00000000       0.00000000       0.00000000       0.00000000       0.00000000      -8.19120979
Nd       0.00000000       0.00000000       2.30505051       0.00000000       0.00000000       8.19120979
2
Properties=species:S:1:pos:R:3:forces:R:3 energy=-2.6707419532981547 pbc="F F F"
Nd       0.00000000       0.00000000       0.00000000       0.00000000       0.00000000      -5.76196766
Nd       0.00000000       0.00000000       2.36464646       0.00000000       0.00000000       5.76196766
2
Properties=species:S:1:pos:R:3:forces:R:3 energy=-2.9561034386170633 pbc="F F F"
Nd       0.00000000       0.00000000       0.00000000       0.00000000       0.00000000      -3.90653586
Nd       0.00000000       0.00000000       2.42424242       0.00000000       0.00000000       3.90653586
2
Properties=species:S:1:pos:R:3:forces:R:3 energy=-3.1466431553380736 pbc="F F F"
Nd       0.00000000       0.00000000       0.00000000       0.00000000       0.00000000      -2.56730008
Nd       0.00000000       0.00000000       2.48383838       0.00000000       0.00000000       2.56730008
2
Properties=species:S:1:pos:R:3:forces:R:3 energy=-3.270625504964366 pbc="F F F"
Nd       0.00000000       0.00000000       0.00000000       0.00000000       0.00000000      -1.65651166
Nd       0.00000000       0.00000000       2.54343434       0.00000000       0.00000000       1.65651166
2
Properties=species:S:1:pos:R:3:forces:R:3 energy=-3.3505391965844824 pbc="F F F"
Nd       0.00000000       0.00000000       0.00000000       0.00000000       0.00000000      -1.07048559
Nd       0.00000000       0.00000000       2.60303030       0.00000000       0.00000000       1.07048559
2
Properties=species:S:1:pos:R:3:forces:R:3 energy=-3.4025471922036625 pbc="F F F"
Nd       0.00000000       0.00000000       0.00000000       0.00000000       0.00000000      -0.70275694
Nd       0.00000000       0.00000000       2.66262626       0.00000000       0.00000000       0.70275694
2
Properties=species:S:1:pos:R:3:forces:R:3 energy=-3.436746055472757 pbc="F F F"
Nd       0.00000000       0.00000000       0.00000000       0.00000000       0.00000000      -0.45888188
Nd       0.00000000       0.00000000       2.72222222       0.00000000       0.00000000       0.45888188
2
Properties=species:S:1:pos:R:3:forces:R:3 energy=-3.458291726204874 pbc="F F F"
Nd       0.00000000       0.00000000       0.00000000       0.00000000       0.00000000      -0.26879141
Nd       0.00000000       0.00000000       2.78181818       0.00000000       0.00000000       0.26879141
2
Properties=species:S:1:pos:R:3:forces:R:3 energy=-3.4690095356974804 pbc="F F F"
Nd       0.00000000       0.00000000       0.00000000       0.00000000       0.00000000      -0.09086592
Nd       0.00000000       0.00000000       2.84141414       0.00000000       0.00000000       0.09086592
2
Properties=species:S:1:pos:R:3:forces:R:3 energy=-3.469002416076168 pbc="F F F"
Nd       0.00000000       0.00000000       0.00000000       0.00000000       0.00000000       0.09254833
Nd       0.00000000       0.00000000       2.90101010       0.00000000       0.00000000      -0.09254833
2
Properties=species:S:1:pos:R:3:forces:R:3 energy=-3.457830318991606 pbc="F F F"
Nd       0.00000000       0.00000000       0.00000000       0.00000000       0.00000000       0.28311908
Nd       0.00000000       0.00000000       2.96060606       0.00000000       0.00000000      -0.28311908
2
Properties=species:S:1:pos:R:3:forces:R:3 energy=-3.435258987006191 pbc="F F F"
Nd       0.00000000       0.00000000       0.00000000       0.00000000       0.00000000       0.47337136
Nd       0.00000000       0.00000000       3.02020202       0.00000000       0.00000000      -0.47337136
2
Properties=species:S:1:pos:R:3:forces:R:3 energy=-3.401653257886447 pbc="F F F"
Nd       0.00000000       0.00000000       0.00000000       0.00000000       0.00000000       0.65125620
Nd       0.00000000       0.00000000       3.07979798       0.00000000       0.00000000      -0.65125620
2
Properties=species:S:1:pos:R:3:forces:R:3 energy=-3.3581462530951676 pbc="F F F"
Nd       0.00000000       0.00000000       0.00000000       0.00000000       0.00000000       0.80342346
Nd       0.00000000       0.00000000       3.13939394       0.00000000       0.00000000      -0.80342346
2
Properties=species:S:1:pos:R:3:forces:R:3 energy=-3.3066324889951986 pbc="F F F"
Nd       0.00000000       0.00000000       0.00000000       0.00000000       0.00000000       0.91848850
Nd       0.00000000       0.00000000       3.19898990       0.00000000       0.00000000      -0.91848850
2
Properties=species:S:1:pos:R:3:forces:R:3 energy=-3.249538454819902 pbc="F F F"
Nd       0.00000000       0.00000000       0.00000000       0.00000000       0.00000000       0.99015701
Nd       0.00000000       0.00000000       3.25858586       0.00000000       0.00000000      -0.99015701
2
Properties=species:S:1:pos:R:3:forces:R:3 energy=-3.189464332905206 pbc="F F F"
Nd       0.00000000       0.00000000       0.00000000       0.00000000       0.00000000       1.01925147
Nd       0.00000000       0.00000000       3.31818182       0.00000000       0.00000000      -1.01925147
2
Properties=species:S:1:pos:R:3:forces:R:3 energy=-3.128740502118613 pbc="F F F"
Nd       0.00000000       0.00000000       0.00000000       0.00000000       0.00000000       1.01384544
Nd       0.00000000       0.00000000       3.37777778       0.00000000       0.00000000      -1.01384544
2
Properties=species:S:1:pos:R:3:forces:R:3 energy=-3.069043747303287 pbc="F F F"
Nd       0.00000000       0.00000000       0.00000000       0.00000000       0.00000000       0.98725253
Nd       0.00000000       0.00000000       3.43737374       0.00000000       0.00000000      -0.98725253
2
Properties=species:S:1:pos:R:3:forces:R:3 energy=-3.0111878517378723 pbc="F F F"
Nd       0.00000000       0.00000000       0.00000000       0.00000000       0.00000000       0.95449865
Nd       0.00000000       0.00000000       3.49696970       0.00000000       0.00000000      -0.95449865
2
Properties=species:S:1:pos:R:3:forces:R:3 energy=-2.955141176754903 pbc="F F F"
Nd       0.00000000       0.00000000       0.00000000       0.00000000       0.00000000       0.92833662
Nd       0.00000000       0.00000000       3.55656566       0.00000000       0.00000000      -0.92833662
2
Properties=species:S:1:pos:R:3:forces:R:3 energy=-2.9002508662400834 pbc="F F F"
Nd       0.00000000       0.00000000       0.00000000       0.00000000       0.00000000       0.91643727
Nd       0.00000000       0.00000000       3.61616162       0.00000000       0.00000000      -0.91643727
2
Properties=species:S:1:pos:R:3:forces:R:3 energy=-2.8455850233066453 pbc="F F F"
Nd       0.00000000       0.00000000       0.00000000       0.00000000       0.00000000       0.92072636
Nd       0.00000000       0.00000000       3.67575758       0.00000000       0.00000000      -0.92072636
2
Properties=species:S:1:pos:R:3:forces:R:3 energy=-2.790237776706807 pbc="F F F"
Nd       0.00000000       0.00000000       0.00000000       0.00000000       0.00000000       0.93854195
Nd       0.00000000       0.00000000       3.73535354       0.00000000       0.00000000      -0.93854195
2
Properties=species:S:1:pos:R:3:forces:R:3 energy=-2.733554761451164 pbc="F F F"
Nd       0.00000000       0.00000000       0.00000000       0.00000000       0.00000000       0.96455437
Nd       0.00000000       0.00000000       3.79494949       0.00000000       0.00000000      -0.96455437
2
Properties=species:S:1:pos:R:3:forces:R:3 energy=-2.6752266905973854 pbc="F F F"
Nd       0.00000000       0.00000000       0.00000000       0.00000000       0.00000000       0.99280584
Nd       0.00000000       0.00000000       3.85454545       0.00000000       0.00000000      -0.99280584
2
Properties=species:S:1:pos:R:3:forces:R:3 energy=-2.615271889673404 pbc="F F F"
Nd       0.00000000       0.00000000       0.00000000       0.00000000       0.00000000       1.01855588
Nd       0.00000000       0.00000000       3.91414141       0.00000000       0.00000000      -1.01855588
2
Properties=species:S:1:pos:R:3:forces:R:3 energy=-2.553920399905395 pbc="F F F"
Nd       0.00000000       0.00000000       0.00000000       0.00000000       0.00000000       1.03947687
Nd       0.00000000       0.00000000       3.97373737       0.00000000       0.00000000      -1.03947687
2
Properties=species:S:1:pos:R:3:forces:R:3 energy=-2.4914685048706584 pbc="F F F"
Nd       0.00000000       0.00000000       0.00000000       0.00000000       0.00000000       1.05572939
Nd       0.00000000       0.00000000       4.03333333       0.00000000       0.00000000      -1.05572939
2
Properties=species:S:1:pos:R:3:forces:R:3 energy=-2.4281455685534965 pbc="F F F"
Nd       0.00000000       0.00000000       0.00000000       0.00000000       0.00000000       1.06900346
Nd       0.00000000       0.00000000       4.09292929       0.00000000       0.00000000      -1.06900346
2
Properties=species:S:1:pos:R:3:forces:R:3 energy=-2.364072801602322 pbc="F F F"
Nd       0.00000000       0.00000000       0.00000000       0.00000000       0.00000000       1.08115089
Nd       0.00000000       0.00000000       4.15252525       0.00000000       0.00000000      -1.08115089
2
Properties=species:S:1:pos:R:3:forces:R:3 energy=-2.299285020776795 pbc="F F F"
Nd       0.00000000       0.00000000       0.00000000       0.00000000       0.00000000       1.09310865
Nd       0.00000000       0.00000000       4.21212121       0.00000000       0.00000000      -1.09310865
2
Properties=species:S:1:pos:R:3:forces:R:3 energy=-2.233793327691552 pbc="F F F"
Nd       0.00000000       0.00000000       0.00000000       0.00000000       0.00000000       1.10451686
Nd       0.00000000       0.00000000       4.27171717       0.00000000       0.00000000      -1.10451686
2
Properties=species:S:1:pos:R:3:forces:R:3 energy=-2.1676735010885135 pbc="F F F"
Nd       0.00000000       0.00000000       0.00000000       0.00000000       0.00000000       1.11397576
Nd       0.00000000       0.00000000       4.33131313       0.00000000       0.00000000      -1.11397576
2
Properties=species:S:1:pos:R:3:forces:R:3 energy=-2.1010931005271694 pbc="F F F"
Nd       0.00000000       0.00000000       0.00000000       0.00000000       0.00000000       1.11961782
Nd       0.00000000       0.00000000       4.39090909       0.00000000       0.00000000      -1.11961782
2
Properties=species:S:1:pos:R:3:forces:R:3 energy=-2.03433319532145 pbc="F F F"
Nd       0.00000000       0.00000000       0.00000000       0.00000000       0.00000000       1.11973250
Nd       0.00000000       0.00000000       4.45050505       0.00000000       0.00000000      -1.11973250
2
Properties=species:S:1:pos:R:3:forces:R:3 energy=-1.9677623642433182 pbc="F F F"
Nd       0.00000000       0.00000000       0.00000000       0.00000000       0.00000000       1.11324358
Nd       0.00000000       0.00000000       4.51010101       0.00000000       0.00000000      -1.11324358
2
Properties=species:S:1:pos:R:3:forces:R:3 energy=-1.9017806113038311 pbc="F F F"
Nd       0.00000000       0.00000000       0.00000000       0.00000000       0.00000000       1.09990478
Nd       0.00000000       0.00000000       4.56969697       0.00000000       0.00000000      -1.09990478
2
Properties=species:S:1:pos:R:3:forces:R:3 energy=-1.836784564144189 pbc="F F F"
Nd       0.00000000       0.00000000       0.00000000       0.00000000       0.00000000       1.08035839
Nd       0.00000000       0.00000000       4.62929293       0.00000000       0.00000000      -1.08035839
2
Properties=species:S:1:pos:R:3:forces:R:3 energy=-1.773109048812566 pbc="F F F"
Nd       0.00000000       0.00000000       0.00000000       0.00000000       0.00000000       1.05592787
Nd       0.00000000       0.00000000       4.68888889       0.00000000       0.00000000      -1.05592787
2
Properties=species:S:1:pos:R:3:forces:R:3 energy=-1.710991641423557 pbc="F F F"
Nd       0.00000000       0.00000000       0.00000000       0.00000000       0.00000000       1.02822185
Nd       0.00000000       0.00000000       4.74848485       0.00000000       0.00000000      -1.02822185
2
Properties=species:S:1:pos:R:3:forces:R:3 energy=-1.6505920612585072 pbc="F F F"
Nd       0.00000000       0.00000000       0.00000000       0.00000000       0.00000000       0.99853837
Nd       0.00000000       0.00000000       4.80808081       0.00000000       0.00000000      -0.99853837
2
Properties=species:S:1:pos:R:3:forces:R:3 energy=-1.5920067851588768 pbc="F F F"
Nd       0.00000000       0.00000000       0.00000000       0.00000000       0.00000000       0.96712148
Nd       0.00000000       0.00000000       4.86767677       0.00000000       0.00000000      -0.96712148
2
Properties=species:S:1:pos:R:3:forces:R:3 energy=-1.5353774266094247 pbc="F F F"
Nd       0.00000000       0.00000000       0.00000000       0.00000000       0.00000000       0.93257415
Nd       0.00000000       0.00000000       4.92727273       0.00000000       0.00000000      -0.93257415
2
Properties=species:S:1:pos:R:3:forces:R:3 energy=-1.480966258574935 pbc="F F F"
Nd       0.00000000       0.00000000       0.00000000       0.00000000       0.00000000       0.89227867
Nd       0.00000000       0.00000000       4.98686869       0.00000000       0.00000000      -0.89227867
2
Properties=species:S:1:pos:R:3:forces:R:3 energy=-1.4291700924629616 pbc="F F F"
Nd       0.00000000       0.00000000       0.00000000       0.00000000       0.00000000       0.84523672
Nd       0.00000000       0.00000000       5.04646465       0.00000000       0.00000000      -0.84523672
2
Properties=species:S:1:pos:R:3:forces:R:3 energy=-1.3802411256456601 pbc="F F F"
Nd       0.00000000       0.00000000       0.00000000       0.00000000       0.00000000       0.79782611
Nd       0.00000000       0.00000000       5.10606061       0.00000000       0.00000000      -0.79782611
2
Properties=species:S:1:pos:R:3:forces:R:3 energy=-1.3337274945998312 pbc="F F F"
Nd       0.00000000       0.00000000       0.00000000       0.00000000       0.00000000       0.76771665
Nd       0.00000000       0.00000000       5.16565657       0.00000000       0.00000000      -0.76771665
2
Properties=species:S:1:pos:R:3:forces:R:3 energy=-1.287989916915753 pbc="F F F"
Nd       0.00000000       0.00000000       0.00000000       0.00000000       0.00000000       0.77407813
Nd       0.00000000       0.00000000       5.22525253       0.00000000       0.00000000      -0.77407813
2
Properties=species:S:1:pos:R:3:forces:R:3 energy=-1.2408264976939871 pbc="F F F"
Nd       0.00000000       0.00000000       0.00000000       0.00000000       0.00000000       0.81123430
Nd       0.00000000       0.00000000       5.28484848       0.00000000       0.00000000      -0.81123430
2
Properties=species:S:1:pos:R:3:forces:R:3 energy=-1.1915157015037854 pbc="F F F"
Nd       0.00000000       0.00000000       0.00000000       0.00000000       0.00000000       0.83734500
Nd       0.00000000       0.00000000       5.34444444       0.00000000       0.00000000      -0.83734500
2
Properties=species:S:1:pos:R:3:forces:R:3 energy=-1.142066861830218 pbc="F F F"
Nd       0.00000000       0.00000000       0.00000000       0.00000000       0.00000000       0.81280696
Nd       0.00000000       0.00000000       5.40404040       0.00000000       0.00000000      -0.81280696
2
Properties=species:S:1:pos:R:3:forces:R:3 energy=-1.0953480055174232 pbc="F F F"
Nd       0.00000000       0.00000000       0.00000000       0.00000000       0.00000000       0.75407547
Nd       0.00000000       0.00000000       5.46363636       0.00000000       0.00000000      -0.75407547
2
Properties=species:S:1:pos:R:3:forces:R:3 energy=-1.0513801928211026 pbc="F F F"
Nd       0.00000000       0.00000000       0.00000000       0.00000000       0.00000000       0.73684591
Nd       0.00000000       0.00000000       5.52323232       0.00000000       0.00000000      -0.73684591
2
Properties=species:S:1:pos:R:3:forces:R:3 energy=-1.0051142831653328 pbc="F F F"
Nd       0.00000000       0.00000000       0.00000000       0.00000000       0.00000000       0.83852446
Nd       0.00000000       0.00000000       5.58282828       0.00000000       0.00000000      -0.83852446
2
Properties=species:S:1:pos:R:3:forces:R:3 energy=-0.9491809834106442 pbc="F F F"
Nd       0.00000000       0.00000000       0.00000000       0.00000000       0.00000000       1.04898703
Nd       0.00000000       0.00000000       5.64242424       0.00000000       0.00000000      -1.04898703
2
Properties=species:S:1:pos:R:3:forces:R:3 energy=-0.8805972783001644 pbc="F F F"
Nd       0.00000000       0.00000000       0.00000000       0.00000000       0.00000000       1.22963238
Nd       0.00000000       0.00000000       5.70202020       0.00000000       0.00000000      -1.22963238
2
Properties=species:S:1:pos:R:3:forces:R:3 energy=-0.806913465226844 pbc="F F F"
Nd       0.00000000       0.00000000       0.00000000       0.00000000       0.00000000       1.20176816
Nd       0.00000000       0.00000000       5.76161616       0.00000000       0.00000000      -1.20176816
2
Properties=species:S:1:pos:R:3:forces:R:3 energy=-0.7425929039901162 pbc="F F F"
Nd       0.00000000       0.00000000       0.00000000       0.00000000       0.00000000       0.91834158
Nd       0.00000000       0.00000000       5.82121212       0.00000000       0.00000000      -0.91834158
2
Properties=species:S:1:pos:R:3:forces:R:3 energy=-0.7000806322434143 pbc="F F F"
Nd       0.00000000       0.00000000       0.00000000       0.00000000       0.00000000       0.50954700
Nd       0.00000000       0.00000000       5.88080808       0.00000000       0.00000000      -0.50954700
2
Properties=species:S:1:pos:R:3:forces:R:3 energy=-0.6803358425775686 pbc="F F F"
Nd       0.00000000       0.00000000       0.00000000       0.00000000       0.00000000       0.17241353
Nd       0.00000000       0.00000000       5.94040404       0.00000000       0.00000000      -0.17241353
2
Properties=species:S:1:pos:R:3:forces:R:3 energy=-0.6751776080608068 pbc="F F F"
Nd       0.00000000       0.00000000       0.00000000       0.00000000       0.00000000       0.04415693
Nd       0.00000000       0.00000000       6.00000000       0.00000000       0.00000000      -0.04415693
