2
Properties=species:S:1:pos:R:3:forces:R:3 energy=11157.400536313378 pbc="F F F"
Nd       0.00000000       0.00000000       0.00000000       0.00000000       0.00000000 -190036.29687500
Nd       0.00000000       0.00000000       0.18000000       0.00000000       0.00000000  190036.29687500
2
Properties=species:S:1:pos:R:3:forces:R:3 energy=4459.046532407128 pbc="F F F"
Nd       0.00000000       0.00000000       0.00000000       0.00000000       0.00000000  -64172.51171875
Nd       0.00000000       0.00000000       0.23878788       0.00000000       0.00000000   64172.51171875
2
Properties=species:S:1:pos:R:3:forces:R:3 energy=2019.9902579930658 pbc="F F F"
Nd       0.00000000       0.00000000       0.00000000       0.00000000       0.00000000  -25521.61328125
Nd       0.00000000       0.00000000       0.29757576       0.00000000       0.00000000   25521.61328125
2
Properties=species:S:1:pos:R:3:forces:R:3 energy=1003.3934562352534 pbc="F F F"
Nd       0.00000000       0.00000000       0.00000000       0.00000000       0.00000000  -11232.81640625
Nd       0.00000000       0.00000000       0.35636364       0.00000000       0.00000000   11232.81640625
2
Properties=species:S:1:pos:R:3:forces:R:3 energy=541.0999992166747 pbc="F F F"
Nd       0.00000000       0.00000000       0.00000000       0.00000000       0.00000000   -5308.83593750
Nd       0.00000000       0.00000000       0.41515152       0.00000000       0.00000000    5308.83593750
2
Properties=species:S:1:pos:R:3:forces:R:3 energy=316.9088066023929 pbc="F F F"
Nd       0.00000000       0.00000000       0.00000000       0.00000000       0.00000000   -2655.17236328
Nd       0.00000000       0.00000000       0.47393939       0.00000000       0.00000000    2655.17236328
2
Properties=species:S:1:pos:R:3:forces:R:3 energy=202.26566391486884 pbc="F F F"
Nd       0.00000000       0.00000000       0.00000000       0.00000000       0.00000000   -1394.32604980
Nd       0.00000000       0.00000000       0.53272727       0.00000000       0.00000000    1394.32604980
2
Properties=species:S:1:pos:R:3:forces:R:3 energy=140.8551414919452 pbc="F F F"
Nd       0.00000000       0.00000000       0.00000000       0.00000000       0.00000000    -764.66015625
Nd       0.00000000       0.00000000       0.59151515       0.00000000       0.00000000     764.66015625
2
Properties=species:S:1:pos:R:3:forces:R:3 energy=106.57521142788426 pbc="F F F"
Nd       0.00000000       0.00000000       0.00000000       0.00000000       0.00000000    -435.67712402
Nd       0.00000000       0.00000000       0.65030303       0.00000000       0.00000000     435.67712402
2
Properties=species:S:1:pos:R:3:forces:R:3 energy=86.74630067627527 pbc="F F F"
Nd       0.00000000       0.00000000       0.00000000       0.00000000       0.00000000    -256.28662109
Nd       0.00000000       0.00000000       0.70909091       0.00000000       0.00000000     256.28662109
2
Properties=species:S:1:pos:R:3:forces:R:3 energy=74.94822033330964 pbc="F F F"
Nd       0.00000000       0.00000000       0.00000000       0.00000000       0.00000000    -154.25646973
Nd       0.00000000       0.00000000       0.76787879       0.00000000       0.00000000     154.25646973
2
Properties=species:S:1:pos:R:3:forces:R:3 energy=67.80993773482878 pbc="F F F"
Nd       0.00000000       0.00000000       0.00000000       0.00000000       0.00000000     -93.56510162
Nd       0.00000000       0.00000000       0.82666667       0.00000000       0.00000000      93.56510162
2
Properties=species:S:1:pos:R:3:forces:R:3 energy=63.50785592648697 pbc="F F F"
Nd       0.00000000       0.00000000       0.00000000       0.00000000       0.00000000     -55.59191895
Nd       0.00000000       0.00000000       0.88545455       0.00000000       0.00000000      55.59191895
2
Properties=species:S:1:pos:R:3:forces:R:3 energy=61.01246825027719 pbc="F F F"
Nd       0.00000000       0.00000000       0.00000000       0.00000000       0.00000000     -31.14919853
Nd       0.00000000       0.00000000       0.94424242       0.00000000       0.00000000      31.14919853
2
Properties=species:S:1:pos:R:3:forces:R:3 energy=59.646623992552364 pbc="F F F"
Nd       0.00000000       0.00000000       0.00000000       0.00000000       0.00000000     -16.92354584
Nd       0.00000000       0.00000000       1.00303030       0.00000000       0.00000000      16.92354584
2
Properties=species:S:1:pos:R:3:forces:R:3 energy=58.84348209118066 pbc="F F F"
Nd       0.00000000       0.00000000       0.00000000       0.00000000       0.00000000     -11.81041336
Nd       0.00000000       0.00000000       1.06181818       0.00000000       0.00000000      11.81041336
2
Properties=species:S:1:pos:R:3:forces:R:3 energy=58.110591857393324 pbc="F F F"
Nd       0.00000000       0.00000000       0.00000000       0.00000000       0.00000000     -14.21204472
Nd       0.00000000       0.00000000       1.12060606       0.00000000       0.00000000      14.21204472
2
Properties=species:S:1:pos:R:3:forces:R:3 energy=57.06172289846809 pbc="F F F"
Nd       0.00000000       0.00000000       0.00000000       0.00000000       0.00000000     -22.27999687
Nd       0.00000000       0.00000000       1.17939394       0.00000000       0.00000000      22.27999687
2
Properties=species:S:1:pos:R:3:forces:R:3 energy=55.40983836933815 pbc="F F F"
Nd       0.00000000       0.00000000       0.00000000       0.00000000       0.00000000     -34.49246597
Nd       0.00000000       0.00000000       1.23818182       0.00000000       0.00000000      34.49246597
2
Properties=species:S:1:pos:R:3:forces:R:3 energy=52.95332394080586 pbc="F F F"
Nd       0.00000000       0.00000000       0.00000000       0.00000000       0.00000000     -49.39874268
Nd       0.00000000       0.00000000       1.29696970       0.00000000       0.00000000      49.39874268
2
Properties=species:S:1:pos:R:3:forces:R:3 energy=49.581080509091315 pbc="F F F"
Nd       0.00000000       0.00000000       0.00000000       0.00000000       0.00000000     -65.34870911
Nd       0.00000000       0.00000000       1.35575758       0.00000000       0.00000000      65.34870911
2
Properties=species:S:1:pos:R:3:forces:R:3 energy=45.2869130691916 pbc="F F F"
Nd       0.00000000       0.00000000       0.00000000       0.00000000       0.00000000     -80.42695618
Nd       0.00000000       0.00000000       1.41454545       0.00000000       0.00000000      80.42695618
2
Properties=species:S:1:pos:R:3:forces:R:3 energy=40.181089374308456 pbc="F F F"
Nd       0.00000000       0.00000000       0.00000000       0.00000000       0.00000000     -92.63920593
Nd       0.00000000       0.00000000       1.47333333       0.00000000       0.00000000      92.63920593
2
Properties=species:S:1:pos:R:3:forces:R:3 energy=34.488955200740904 pbc="F F F"
Nd       0.00000000       0.00000000       0.00000000       0.00000000       0.00000000    -100.03288269
Nd       0.00000000       0.00000000       1.53212121       0.00000000       0.00000000     100.03288269
2
Properties=species:S:1:pos:R:3:forces:R:3 energy=28.557510809943437 pbc="F F F"
Nd       0.00000000       0.00000000       0.00000000       0.00000000       0.00000000    -100.40393829
Nd       0.00000000       0.00000000       1.59090909       0.00000000       0.00000000     100.40393829
2
Properties=species:S:1:pos:R:3:forces:R:3 energy=22.850900119694558 pbc="F F F"
Nd       0.00000000       0.00000000       0.00000000       0.00000000       0.00000000     -92.40133667
Nd       0.00000000       0.00000000       1.64969697       0.00000000       0.00000000      92.40133667
2
Properties=species:S:1:pos:R:3:forces:R:3 energy=17.810176723237813 pbc="F F F"
Nd       0.00000000       0.00000000       0.00000000       0.00000000       0.00000000     -78.56395721
Nd       0.00000000       0.00000000       1.70848485       0.00000000       0.00000000      78.56395721
2
Properties=species:S:1:pos:R:3:forces:R:3 energy=13.618667595190383 pbc="F F F"
Nd       0.00000000       0.00000000       0.00000000       0.00000000       0.00000000     -64.36332703
Nd       0.00000000       0.00000000       1.76727273       0.00000000       0.00000000      64.36332703
2
Properties=species:S:1:pos:R:3:forces:R:3 energy=10.186828692713393 pbc="F F F"
Nd       0.00000000       0.00000000       0.00000000       0.00000000       0.00000000     -52.87988281
Nd       0.00000000       0.00000000       1.82606061       0.00000000       0.00000000      52.87988281
2
Properties=species:S:1:pos:R:3:forces:R:3 energy=7.353703409643988 pbc="F F F"
Nd       0.00000000       0.00000000       0.00000000       0.00000000       0.00000000     -43.81419754
Nd       0.00000000       0.00000000       1.88484848       0.00000000       0.00000000      43.81419754
2
Properties=species:S:1:pos:R:3:forces:R:3 energy=5.006906350961358 pbc="F F F"
Nd       0.00000000       0.00000000       0.00000000       0.00000000       0.00000000     -36.22584152
Nd       0.00000000       0.00000000       1.94363636       0.00000000       0.00000000      36.22584152
2
Properties=species:S:1:pos:R:3:forces:R:3 energy=3.0727763056809407 pbc="F F F"
Nd       0.00000000       0.00000000       0.00000000       0.00000000       0.00000000     -29.74574280
Nd       0.00000000       0.00000000       2.00242424       0.00000000       0.00000000      29.74574280
2
Properties=species:S:1:pos:R:3:forces:R:3 energy=1.491096775597449 pbc="F F F"
Nd       0.00000000       0.00000000       0.00000000       0.00000000       0.00000000     -24.20479965
Nd       0.00000000       0.00000000       2.06121212       0.00000000       0.00000000      24.20479965
2
Properties=species:S:1:pos:R:3:forces:R:3 energy=0.21210285577153523 pbc="F F F"
Nd       0.00000000       0.00000000       0.00000000       0.00000000       0.00000000     -19.42006111
Nd       0.00000000       0.00000000       2.12000000       0.00000000       0.00000000      19.42006111
2
Properties=species:S:1:pos:R:3:forces:R:3 energy=-0.8043868348454274 pbc="F F F"
Nd       0.00000000       0.00000000       0.00000000       0.00000000       0.00000000     -15.25763607
Nd       0.00000000       0.00000000       2.17878788       0.00000000       0.00000000      15.25763607
2
Properties=species:S:1:pos:R:3:forces:R:3 energy=-1.5926622781847344 pbc="F F F"
Nd       0.00000000       0.00000000       0.00000000       0.00000000       0.00000000     -11.65056324
Nd       0.00000000       0.00000000       2.23757576       0.00000000       0.00000000      11.65056324
2
Properties=species:S:1:pos:R:3:forces:R:3 energy=-2.1849914155370325 pbc="F F F"
Nd       0.00000000       0.00000000       0.00000000       0.00000000       0.00000000      -8.59467697
Nd       0.00000000       0.00000000       2.29636364       0.00000000       0.00000000       8.59467697
2
Properties=species:S:1:pos:R:3:forces:R:3 energy=-2.614394310111014 pbc="F F F"
Nd       0.00000000       0.00000000       0.00000000       0.00000000       0.00000000      -6.10964632
Nd       0.00000000       0.00000000       2.35515152       0.00000000       0.00000000       6.10964632
2
Properties=species:S:1:pos:R:3:forces:R:3 energy=-2.914415959470109 pbc="F F F"
Nd       0.00000000       0.00000000       0.00000000       0.00000000       0.00000000      -4.18831778
Nd       0.00000000       0.00000000       2.41393939       0.00000000       0.00000000       4.18831778
2
Properties=species:S:1:pos:R:3:forces:R:3 energy=-3.1169430839323655 pbc="F F F"
Nd       0.00000000       0.00000000       0.00000000       0.00000000       0.00000000      -2.78156638
Nd       0.00000000       0.00000000       2.47272727       0.00000000       0.00000000       2.78156638
2
Properties=species:S:1:pos:R:3:forces:R:3 energy=-3.24998401077572 pbc="F F F"
Nd       0.00000000       0.00000000       0.00000000       0.00000000       0.00000000      -1.80924225
Nd       0.00000000       0.00000000       2.53151515       0.00000000       0.00000000       1.80924225
2
Properties=species:S:1:pos:R:3:forces:R:3 energy=-3.336269519974233 pbc="F F F"
Nd       0.00000000       0.00000000       0.00000000       0.00000000       0.00000000      -1.17376840
Nd       0.00000000       0.00000000       2.59030303       0.00000000       0.00000000       1.17376840
2
Properties=species:S:1:pos:R:3:forces:R:3 energy=-3.392572788047376 pbc="F F F"
Nd       0.00000000       0.00000000       0.00000000       0.00000000       0.00000000      -0.77233541
Nd       0.00000000       0.00000000       2.64909091       0.00000000       0.00000000       0.77233541
2
Properties=species:S:1:pos:R:3:forces:R:3 energy=-3.4297995966460464 pbc="F F F"
Nd       0.00000000       0.00000000       0.00000000       0.00000000       0.00000000      -0.51049066
Nd       0.00000000       0.00000000       2.70787879       0.00000000       0.00000000       0.51049066
2
Properties=species:S:1:pos:R:3:forces:R:3 energy=-3.4538713105925773 pbc="F F F"
Nd       0.00000000       0.00000000       0.00000000       0.00000000       0.00000000      -0.31478661
Nd       0.00000000       0.00000000       2.76666667       0.00000000       0.00000000       0.31478661
2
Properties=species:S:1:pos:R:3:forces:R:3 energy=-3.4671774482416096 pbc="F F F"
Nd       0.00000000       0.00000000       0.00000000       0.00000000       0.00000000      -0.13867335
Nd       0.00000000       0.00000000       2.82545455       0.00000000       0.00000000       0.13867335
2
Properties=species:S:1:pos:R:3:forces:R:3 energy=-3.4701128294159984 pbc="F F F"
Nd       0.00000000       0.00000000       0.00000000       0.00000000       0.00000000       0.04007594
Nd       0.00000000       0.00000000       2.88424242       0.00000000       0.00000000      -0.04007594
2
Properties=species:S:1:pos:R:3:forces:R:3 energy=-3.4623087562780084 pbc="F F F"
Nd       0.00000000       0.00000000       0.00000000       0.00000000       0.00000000       0.22649537
Nd       0.00000000       0.00000000       2.94303030       0.00000000       0.00000000      -0.22649537
2
Properties=species:S:1:pos:R:3:forces:R:3 energy=-3.443431050998718 pbc="F F F"
Nd       0.00000000       0.00000000       0.00000000       0.00000000       0.00000000       0.41538987
Nd       0.00000000       0.00000000       3.00181818       0.00000000       0.00000000      -0.41538987
2
Properties=species:S:1:pos:R:3:forces:R:3 energy=-3.413626887853221 pbc="F F F"
Nd       0.00000000       0.00000000       0.00000000       0.00000000       0.00000000       0.59614563
Nd       0.00000000       0.00000000       3.06060606       0.00000000       0.00000000      -0.59614563
2
Properties=species:S:1:pos:R:3:forces:R:3 energy=-3.373749398529329 pbc="F F F"
Nd       0.00000000       0.00000000       0.00000000       0.00000000       0.00000000       0.75600415
Nd       0.00000000       0.00000000       3.11939394       0.00000000       0.00000000      -0.75600415
2
Properties=species:S:1:pos:R:3:forces:R:3 energy=-3.32538515128471 pbc="F F F"
Nd       0.00000000       0.00000000       0.00000000       0.00000000       0.00000000       0.88306189
Nd       0.00000000       0.00000000       3.17818182       0.00000000       0.00000000      -0.88306189
2
Properties=species:S:1:pos:R:3:forces:R:3 energy=-3.2707267237199535 pbc="F F F"
Nd       0.00000000       0.00000000       0.00000000       0.00000000       0.00000000       0.96928883
Nd       0.00000000       0.00000000       3.23696970       0.00000000       0.00000000      -0.96928883
2
Properties=species:S:1:pos:R:3:forces:R:3 energy=-3.2122592053537247 pbc="F F F"
Nd       0.00000000       0.00000000       0.00000000       0.00000000       0.00000000       1.01293087
Nd       0.00000000       0.00000000       3.29575758       0.00000000       0.00000000      -1.01293087
2
Properties=species:S:1:pos:R:3:forces:R:3 energy=-3.1523651403730986 pbc="F F F"
Nd       0.00000000       0.00000000       0.00000000       0.00000000       0.00000000       1.01928794
Nd       0.00000000       0.00000000       3.35454545       0.00000000       0.00000000      -1.01928794
2
Properties=species:S:1:pos:R:3:forces:R:3 energy=-3.0929293666776796 pbc="F F F"
Nd       0.00000000       0.00000000       0.00000000       0.00000000       0.00000000       0.99955738
Nd       0.00000000       0.00000000       3.41333333       0.00000000       0.00000000      -0.99955738
2
Properties=species:S:1:pos:R:3:forces:R:3 energy=-3.035072638970301 pbc="F F F"
Nd       0.00000000       0.00000000       0.00000000       0.00000000       0.00000000       0.96799248
Nd       0.00000000       0.00000000       3.47212121       0.00000000       0.00000000      -0.96799248
2
Properties=species:S:1:pos:R:3:forces:R:3 energy=-2.9790799914776027 pbc="F F F"
Nd       0.00000000       0.00000000       0.00000000       0.00000000       0.00000000       0.93816561
Nd       0.00000000       0.00000000       3.53090909       0.00000000       0.00000000      -0.93816561
2
Properties=species:S:1:pos:R:3:forces:R:3 energy=-2.9245405629430774 pbc="F F F"
Nd       0.00000000       0.00000000       0.00000000       0.00000000       0.00000000       0.91971248
Nd       0.00000000       0.00000000       3.58969697       0.00000000       0.00000000      -0.91971248
2
Properties=species:S:1:pos:R:3:forces:R:3 energy=-2.870635256146352 pbc="F F F"
Nd       0.00000000       0.00000000       0.00000000       0.00000000       0.00000000       0.91683888
Nd       0.00000000       0.00000000       3.64848485       0.00000000       0.00000000      -0.91683888
2
Properties=species:S:1:pos:R:3:forces:R:3 energy=-2.816450509424577 pbc="F F F"
Nd       0.00000000       0.00000000       0.00000000       0.00000000       0.00000000       0.92876410
Nd       0.00000000       0.00000000       3.70727273       0.00000000       0.00000000      -0.92876410
2
Properties=species:S:1:pos:R:3:forces:R:3 energy=-2.7612259502196648 pbc="F F F"
Nd       0.00000000       0.00000000       0.00000000       0.00000000       0.00000000       0.95130646
Nd       0.00000000       0.00000000       3.76606061       0.00000000       0.00000000      -0.95130646
2
Properties=species:S:1:pos:R:3:forces:R:3 energy=-2.704503708465256 pbc="F F F"
Nd       0.00000000       0.00000000       0.00000000       0.00000000       0.00000000       0.97879118
Nd       0.00000000       0.00000000       3.82484848       0.00000000       0.00000000      -0.97879118
2
Properties=species:S:1:pos:R:3:forces:R:3 energy=-2.6461523091297807 pbc="F F F"
Nd       0.00000000       0.00000000       0.00000000       0.00000000       0.00000000       1.00589740
Nd       0.00000000       0.00000000       3.88363636       0.00000000       0.00000000      -1.00589740
2
Properties=species:S:1:pos:R:3:forces:R:3 energy=-2.5863115595108193 pbc="F F F"
Nd       0.00000000       0.00000000       0.00000000       0.00000000       0.00000000       1.02912974
Nd       0.00000000       0.00000000       3.94242424       0.00000000       0.00000000      -1.02912974
2
Properties=species:S:1:pos:R:3:forces:R:3 energy=-2.5252497111636463 pbc="F F F"
Nd       0.00000000       0.00000000       0.00000000       0.00000000       0.00000000       1.04746723
Nd       0.00000000       0.00000000       4.00121212       0.00000000       0.00000000      -1.04746723
2
Properties=species:S:1:pos:R:3:forces:R:3 energy=-2.463232030243605 pbc="F F F"
Nd       0.00000000       0.00000000       0.00000000       0.00000000       0.00000000       1.06191373
Nd       0.00000000       0.00000000       4.06000000       0.00000000       0.00000000      -1.06191373
2
Properties=species:S:1:pos:R:3:forces:R:3 energy=-2.4004348907899 pbc="F F F"
Nd       0.00000000       0.00000000       0.00000000       0.00000000       0.00000000       1.07432830
Nd       0.00000000       0.00000000       4.11878788       0.00000000       0.00000000      -1.07432830
2
Properties=species:S:1:pos:R:3:forces:R:3 energy=-2.3369269523291347 pbc="F F F"
Nd       0.00000000       0.00000000       0.00000000       0.00000000       0.00000000       1.08619225
Nd       0.00000000       0.00000000       4.17757576       0.00000000       0.00000000      -1.08619225
2
Properties=species:S:1:pos:R:3:forces:R:3 energy=-2.2727260682238932 pbc="F F F"
Nd       0.00000000       0.00000000       0.00000000       0.00000000       0.00000000       1.09787750
Nd       0.00000000       0.00000000       4.23636364       0.00000000       0.00000000      -1.09787750
2
Properties=species:S:1:pos:R:3:forces:R:3 energy=-2.2078604958911225 pbc="F F F"
Nd       0.00000000       0.00000000       0.00000000       0.00000000       0.00000000       1.10856807
Nd       0.00000000       0.00000000       4.29515152       0.00000000       0.00000000      -1.10856807
2
Properties=species:S:1:pos:R:3:forces:R:3 energy=-2.142436972810064 pbc="F F F"
Nd       0.00000000       0.00000000       0.00000000       0.00000000       0.00000000       1.11666799
Nd       0.00000000       0.00000000       4.35393939       0.00000000       0.00000000      -1.11666799
2
Properties=species:S:1:pos:R:3:forces:R:3 energy=-2.076655673536295 pbc="F F F"
Nd       0.00000000       0.00000000       0.00000000       0.00000000       0.00000000       1.12037253
Nd       0.00000000       0.00000000       4.41272727       0.00000000       0.00000000      -1.12037253
2
Properties=species:S:1:pos:R:3:forces:R:3 energy=-2.0108224779231647 pbc="F F F"
Nd       0.00000000       0.00000000       0.00000000       0.00000000       0.00000000       1.11822796
Nd       0.00000000       0.00000000       4.47151515       0.00000000       0.00000000      -1.11822796
2
Properties=species:S:1:pos:R:3:forces:R:3 energy=-1.9453074661141498 pbc="F F F"
Nd       0.00000000       0.00000000       0.00000000       0.00000000       0.00000000       1.10947311
Nd       0.00000000       0.00000000       4.53030303       0.00000000       0.00000000      -1.10947311
2
Properties=species:S:1:pos:R:3:forces:R:3 energy=-1.880504564782445 pbc="F F F"
Nd       0.00000000       0.00000000       0.00000000       0.00000000       0.00000000       1.09417152
Nd       0.00000000       0.00000000       4.58909091       0.00000000       0.00000000      -1.09417152
2
Properties=species:S:1:pos:R:3:forces:R:3 energy=-1.8167729215030808 pbc="F F F"
Nd       0.00000000       0.00000000       0.00000000       0.00000000       0.00000000       1.07319045
Nd       0.00000000       0.00000000       4.64787879       0.00000000       0.00000000      -1.07319045
2
Properties=species:S:1:pos:R:3:forces:R:3 energy=-1.7544060295469315 pbc="F F F"
Nd       0.00000000       0.00000000       0.00000000       0.00000000       0.00000000       1.04793310
Nd       0.00000000       0.00000000       4.70666667       0.00000000       0.00000000      -1.04793310
2
Properties=species:S:1:pos:R:3:forces:R:3 energy=-1.6936147011271931 pbc="F F F"
Nd       0.00000000       0.00000000       0.00000000       0.00000000       0.00000000       1.01993155
Nd       0.00000000       0.00000000       4.76545455       0.00000000       0.00000000      -1.01993155
2
Properties=species:S:1:pos:R:3:forces:R:3 energy=-1.6345171223431971 pbc="F F F"
Nd       0.00000000       0.00000000       0.00000000       0.00000000       0.00000000       0.99021679
Nd       0.00000000       0.00000000       4.82424242       0.00000000       0.00000000      -0.99021679
2
Properties=species:S:1:pos:R:3:forces:R:3 energy=-1.5772271567536977 pbc="F F F"
Nd       0.00000000       0.00000000       0.00000000       0.00000000       0.00000000       0.95861721
Nd       0.00000000       0.00000000       4.88303030       0.00000000       0.00000000      -0.95861721
2
Properties=species:S:1:pos:R:3:forces:R:3 energy=-1.5218803076594167 pbc="F F F"
Nd       0.00000000       0.00000000       0.00000000       0.00000000       0.00000000       0.92336375
Nd       0.00000000       0.00000000       4.94181818       0.00000000       0.00000000      -0.92336375
2
Properties=species:S:1:pos:R:3:forces:R:3 energy=-1.468781060784928 pbc="F F F"
Nd       0.00000000       0.00000000       0.00000000       0.00000000       0.00000000       0.88196266
Nd       0.00000000       0.00000000       5.00060606       0.00000000       0.00000000      -0.88196266
2
Properties=species:S:1:pos:R:3:forces:R:3 energy=-1.4183038035200617 pbc="F F F"
Nd       0.00000000       0.00000000       0.00000000       0.00000000       0.00000000       0.83454180
Nd       0.00000000       0.00000000       5.05939394       0.00000000       0.00000000      -0.83454180
2
Properties=species:S:1:pos:R:3:forces:R:3 energy=-1.3706193766486527 pbc="F F F"
Nd       0.00000000       0.00000000       0.00000000       0.00000000       0.00000000       0.78955531
Nd       0.00000000       0.00000000       5.11818182       0.00000000       0.00000000      -0.78955531
2
Properties=species:S:1:pos:R:3:forces:R:3 energy=-1.3250590167610583 pbc="F F F"
Nd       0.00000000       0.00000000       0.00000000       0.00000000       0.00000000       0.76575446
Nd       0.00000000       0.00000000       5.17696970       0.00000000       0.00000000      -0.76575446
2
Properties=species:S:1:pos:R:3:forces:R:3 energy=-1.2798369700766123 pbc="F F F"
Nd       0.00000000       0.00000000       0.00000000       0.00000000       0.00000000       0.77918798
Nd       0.00000000       0.00000000       5.23575758       0.00000000       0.00000000      -0.77918798
2
Properties=species:S:1:pos:R:3:forces:R:3 energy=-1.2329311639894134 pbc="F F F"
Nd       0.00000000       0.00000000       0.00000000       0.00000000       0.00000000       0.81763369
Nd       0.00000000       0.00000000       5.29454545       0.00000000       0.00000000      -0.81763369
2
Properties=species:S:1:pos:R:3:forces:R:3 energy=-1.1840760742792071 pbc="F F F"
Nd       0.00000000       0.00000000       0.00000000       0.00000000       0.00000000       0.83728921
Nd       0.00000000       0.00000000       5.35333333       0.00000000       0.00000000      -0.83728921
2
Properties=species:S:1:pos:R:3:forces:R:3 energy=-1.135537106320403 pbc="F F F"
Nd       0.00000000       0.00000000       0.00000000       0.00000000       0.00000000       0.80563200
Nd       0.00000000       0.00000000       5.41212121       0.00000000       0.00000000      -0.80563200
2
Properties=species:S:1:pos:R:3:forces:R:3 energy=-1.0899032841985317 pbc="F F F"
Nd       0.00000000       0.00000000       0.00000000       0.00000000       0.00000000       0.74785507
Nd       0.00000000       0.00000000       5.47090909       0.00000000       0.00000000      -0.74785507
2
Properties=species:S:1:pos:R:3:forces:R:3 energy=-1.0465934294220707 pbc="F F F"
Nd       0.00000000       0.00000000       0.00000000       0.00000000       0.00000000       0.74131209
Nd       0.00000000       0.00000000       5.52969697       0.00000000       0.00000000      -0.74131209
2
Properties=species:S:1:pos:R:3:forces:R:3 energy=-1.0003221656970627 pbc="F F F"
Nd       0.00000000       0.00000000       0.00000000       0.00000000       0.00000000       0.85511845
Nd       0.00000000       0.00000000       5.58848485       0.00000000       0.00000000      -0.85511845
2
Properties=species:S:1:pos:R:3:forces:R:3 energy=-0.9440755477689962 pbc="F F F"
Nd       0.00000000       0.00000000       0.00000000       0.00000000       0.00000000       1.06714070
Nd       0.00000000       0.00000000       5.64727273       0.00000000       0.00000000      -1.06714070
2
Properties=species:S:1:pos:R:3:forces:R:3 energy=-0.8756939443595604 pbc="F F F"
Nd       0.00000000       0.00000000       0.00000000       0.00000000       0.00000000       1.23532891
Nd       0.00000000       0.00000000       5.70606061       0.00000000       0.00000000      -1.23532891
2
Properties=species:S:1:pos:R:3:forces:R:3 energy=-0.8028824552916197 pbc="F F F"
Nd       0.00000000       0.00000000       0.00000000       0.00000000       0.00000000       1.19311178
Nd       0.00000000       0.00000000       5.76484848       0.00000000       0.00000000      -1.19311178
2
Properties=species:S:1:pos:R:3:forces:R:3 energy=-0.7402968950910387 pbc="F F F"
Nd       0.00000000       0.00000000       0.00000000       0.00000000       0.00000000       0.90331888
Nd       0.00000000       0.00000000       5.82363636       0.00000000       0.00000000      -0.90331888
2
Properties=species:S:1:pos:R:3:forces:R:3 energy=-0.6991730820557494 pbc="F F F"
Nd       0.00000000       0.00000000       0.00000000       0.00000000       0.00000000       0.49840763
Nd       0.00000000       0.00000000       5.88242424       0.00000000       0.00000000      -0.49840763
2
Properties=species:S:1:pos:R:3:forces:R:3 energy=-0.680226216703189 pbc="F F F"
Nd       0.00000000       0.00000000       0.00000000       0.00000000       0.00000000       0.16904753
Nd       0.00000000       0.00000000       5.94121212       0.00000000       0.00000000      -0.16904753
2
Properties=species:S:1:pos:R:3:forces:R:3 energy=-0.6751776080608068 pbc="F F F"
Nd       0.00000000       0.00000000       0.00000000       0.00000000       0.00000000       0.04415693
Nd       0.00000000       0.00000000       6.00000000       0.00000000       0.00000000      -0.04415693
