2
Properties=species:S:1:pos:R:3:forces:R:3 energy=633.4477370100595 pbc="F F F"
O        0.00000000       0.00000000       0.00000000       0.00000000       0.00000000   -7712.74658203
O        0.00000000       0.00000000       0.18000000       0.00000000       0.00000000    7712.74658203
2
Properties=species:S:1:pos:R:3:forces:R:3 energy=341.25944355461223 pbc="F F F"
O        0.00000000       0.00000000       0.00000000       0.00000000       0.00000000   -3059.09765625
O        0.00000000       0.00000000       0.23878788       0.00000000       0.00000000    3059.09765625
2
Properties=species:S:1:pos:R:3:forces:R:3 energy=219.40791157377427 pbc="F F F"
O        0.00000000       0.00000000       0.00000000       0.00000000       0.00000000   -1338.54528809
O        0.00000000       0.00000000       0.29757576       0.00000000       0.00000000    1338.54528809
2
Properties=species:S:1:pos:R:3:forces:R:3 energy=165.47414998184632 pbc="F F F"
O        0.00000000       0.00000000       0.00000000       0.00000000       0.00000000    -594.21557617
O        0.00000000       0.00000000       0.35636364       0.00000000       0.00000000     594.21557617
2
Properties=species:S:1:pos:R:3:forces:R:3 energy=140.9786360769181 pbc="F F F"
O        0.00000000       0.00000000       0.00000000       0.00000000       0.00000000    -298.19650269
O        0.00000000       0.00000000       0.41515152       0.00000000       0.00000000     298.19650269
2
Properties=species:S:1:pos:R:3:forces:R:3 energy=124.58624870895612 pbc="F F F"
O        0.00000000       0.00000000       0.00000000       0.00000000       0.00000000    -296.84124756
O        0.00000000       0.00000000       0.47393939       0.00000000       0.00000000     296.84124756
2
Properties=species:S:1:pos:R:3:forces:R:3 energy=103.73991238539172 pbc="F F F"
O        0.00000000       0.00000000       0.00000000       0.00000000       0.00000000    -412.43258667
O        0.00000000       0.00000000       0.53272727       0.00000000       0.00000000     412.43258667
2
Properties=species:S:1:pos:R:3:forces:R:3 energy=78.06864781060608 pbc="F F F"
O        0.00000000       0.00000000       0.00000000       0.00000000       0.00000000    -439.34130859
O        0.00000000       0.00000000       0.59151515       0.00000000       0.00000000     439.34130859
2
Properties=species:S:1:pos:R:3:forces:R:3 energy=53.50896317598144 pbc="F F F"
O        0.00000000       0.00000000       0.00000000       0.00000000       0.00000000    -387.31341553
O        0.00000000       0.00000000       0.65030303       0.00000000       0.00000000     387.31341553
2
Properties=species:S:1:pos:R:3:forces:R:3 energy=33.3480861358917 pbc="F F F"
O        0.00000000       0.00000000       0.00000000       0.00000000       0.00000000    -296.85922241
O        0.00000000       0.00000000       0.70909091       0.00000000       0.00000000     296.85922241
2
Properties=species:S:1:pos:R:3:forces:R:3 energy=18.512002055150965 pbc="F F F"
O        0.00000000       0.00000000       0.00000000       0.00000000       0.00000000    -209.34208679
O        0.00000000       0.00000000       0.76787879       0.00000000       0.00000000     209.34208679
2
Properties=species:S:1:pos:R:3:forces:R:3 energy=8.314886576755077 pbc="F F F"
O        0.00000000       0.00000000       0.00000000       0.00000000       0.00000000    -142.57789612
O        0.00000000       0.00000000       0.82666667       0.00000000       0.00000000     142.57789612
2
Properties=species:S:1:pos:R:3:forces:R:3 energy=1.3335594065007816 pbc="F F F"
O        0.00000000       0.00000000       0.00000000       0.00000000       0.00000000     -96.80909729
O        0.00000000       0.00000000       0.88545455       0.00000000       0.00000000      96.80909729
2
Properties=species:S:1:pos:R:3:forces:R:3 energy=-3.2574918101771915 pbc="F F F"
O        0.00000000       0.00000000       0.00000000       0.00000000       0.00000000     -61.27287292
O        0.00000000       0.00000000       0.94424242       0.00000000       0.00000000      61.27287292
2
Properties=species:S:1:pos:R:3:forces:R:3 energy=-6.104941158983765 pbc="F F F"
O        0.00000000       0.00000000       0.00000000       0.00000000       0.00000000     -37.37188721
O        0.00000000       0.00000000       1.00303030       0.00000000       0.00000000      37.37188721
2
Properties=species:S:1:pos:R:3:forces:R:3 energy=-7.816577133001509 pbc="F F F"
O        0.00000000       0.00000000       0.00000000       0.00000000       0.00000000     -21.95951653
O        0.00000000       0.00000000       1.06181818       0.00000000       0.00000000      21.95951653
2
Properties=species:S:1:pos:R:3:forces:R:3 energy=-8.789752137007868 pbc="F F F"
O        0.00000000       0.00000000       0.00000000       0.00000000       0.00000000     -11.81595993
O        0.00000000       0.00000000       1.12060606       0.00000000       0.00000000      11.81595993
2
Properties=species:S:1:pos:R:3:forces:R:3 energy=-9.264964743882796 pbc="F F F"
O        0.00000000       0.00000000       0.00000000       0.00000000       0.00000000      -4.74232054
O        0.00000000       0.00000000       1.17939394       0.00000000       0.00000000       4.74232054
2
Properties=species:S:1:pos:R:3:forces:R:3 energy=-9.3886652173065 pbc="F F F"
O        0.00000000       0.00000000       0.00000000       0.00000000       0.00000000       0.20444447
O        0.00000000       0.00000000       1.23818182       0.00000000       0.00000000      -0.20444447
2
Properties=species:S:1:pos:R:3:forces:R:3 energy=-9.275674682277462 pbc="F F F"
O        0.00000000       0.00000000       0.00000000       0.00000000       0.00000000       3.39032960
O        0.00000000       0.00000000       1.29696970       0.00000000       0.00000000      -3.39032960
2
Properties=species:S:1:pos:R:3:forces:R:3 energy=-9.0133215456199 pbc="F F F"
O        0.00000000       0.00000000       0.00000000       0.00000000       0.00000000       5.38863325
O        0.00000000       0.00000000       1.35575758       0.00000000       0.00000000      -5.38863325
2
Properties=species:S:1:pos:R:3:forces:R:3 energy=-8.655040990716783 pbc="F F F"
O        0.00000000       0.00000000       0.00000000       0.00000000       0.00000000       6.71767616
O        0.00000000       0.00000000       1.41454545       0.00000000       0.00000000      -6.71767616
2
Properties=species:S:1:pos:R:3:forces:R:3 energy=-8.230856498779314 pbc="F F F"
O        0.00000000       0.00000000       0.00000000       0.00000000       0.00000000       7.66356468
O        0.00000000       0.00000000       1.47333333       0.00000000       0.00000000      -7.66356468
2
Properties=species:S:1:pos:R:3:forces:R:3 energy=-7.75991835912661 pbc="F F F"
O        0.00000000       0.00000000       0.00000000       0.00000000       0.00000000       8.30054760
O        0.00000000       0.00000000       1.53212121       0.00000000       0.00000000      -8.30054760
2
Properties=species:S:1:pos:R:3:forces:R:3 energy=-7.262029431804551 pbc="F F F"
O        0.00000000       0.00000000       0.00000000       0.00000000       0.00000000       8.58603477
O        0.00000000       0.00000000       1.59090909       0.00000000       0.00000000      -8.58603477
2
Properties=species:S:1:pos:R:3:forces:R:3 energy=-6.7536814647954975 pbc="F F F"
O        0.00000000       0.00000000       0.00000000       0.00000000       0.00000000       8.70378876
O        0.00000000       0.00000000       1.64969697       0.00000000       0.00000000      -8.70378876
2
Properties=species:S:1:pos:R:3:forces:R:3 energy=-6.238359070402636 pbc="F F F"
O        0.00000000       0.00000000       0.00000000       0.00000000       0.00000000       8.82328129
O        0.00000000       0.00000000       1.70848485       0.00000000       0.00000000      -8.82328129
2
Properties=species:S:1:pos:R:3:forces:R:3 energy=-5.719505533573085 pbc="F F F"
O        0.00000000       0.00000000       0.00000000       0.00000000       0.00000000       8.77338886
O        0.00000000       0.00000000       1.76727273       0.00000000       0.00000000      -8.77338886
2
Properties=species:S:1:pos:R:3:forces:R:3 energy=-5.21646536778031 pbc="F F F"
O        0.00000000       0.00000000       0.00000000       0.00000000       0.00000000       8.23736763
O        0.00000000       0.00000000       1.82606061       0.00000000       0.00000000      -8.23736763
2
Properties=species:S:1:pos:R:3:forces:R:3 energy=-4.763341043281914 pbc="F F F"
O        0.00000000       0.00000000       0.00000000       0.00000000       0.00000000       7.08679724
O        0.00000000       0.00000000       1.88484848       0.00000000       0.00000000      -7.08679724
2
Properties=species:S:1:pos:R:3:forces:R:3 energy=-4.389991445688392 pbc="F F F"
O        0.00000000       0.00000000       0.00000000       0.00000000       0.00000000       5.59831238
O        0.00000000       0.00000000       1.94363636       0.00000000       0.00000000      -5.59831238
2
Properties=species:S:1:pos:R:3:forces:R:3 energy=-4.102459750224102 pbc="F F F"
O        0.00000000       0.00000000       0.00000000       0.00000000       0.00000000       4.23729944
O        0.00000000       0.00000000       2.00242424       0.00000000       0.00000000      -4.23729944
2
Properties=species:S:1:pos:R:3:forces:R:3 energy=-3.883862689423593 pbc="F F F"
O        0.00000000       0.00000000       0.00000000       0.00000000       0.00000000       3.26988196
O        0.00000000       0.00000000       2.06121212       0.00000000       0.00000000      -3.26988196
2
Properties=species:S:1:pos:R:3:forces:R:3 energy=-3.71075063125815 pbc="F F F"
O        0.00000000       0.00000000       0.00000000       0.00000000       0.00000000       2.66800046
O        0.00000000       0.00000000       2.12000000       0.00000000       0.00000000      -2.66800046
2
Properties=species:S:1:pos:R:3:forces:R:3 energy=-3.566241613851929 pbc="F F F"
O        0.00000000       0.00000000       0.00000000       0.00000000       0.00000000       2.26785278
O        0.00000000       0.00000000       2.17878788       0.00000000       0.00000000      -2.26785278
2
Properties=species:S:1:pos:R:3:forces:R:3 energy=-3.4430085178342043 pbc="F F F"
O        0.00000000       0.00000000       0.00000000       0.00000000       0.00000000       1.92642832
O        0.00000000       0.00000000       2.23757576       0.00000000       0.00000000      -1.92642832
2
Properties=species:S:1:pos:R:3:forces:R:3 energy=-3.339950211413094 pbc="F F F"
O        0.00000000       0.00000000       0.00000000       0.00000000       0.00000000       1.57648802
O        0.00000000       0.00000000       2.29636364       0.00000000       0.00000000      -1.57648802
2
Properties=species:S:1:pos:R:3:forces:R:3 energy=-3.25791260299522 pbc="F F F"
O        0.00000000       0.00000000       0.00000000       0.00000000       0.00000000       1.21430016
O        0.00000000       0.00000000       2.35515152       0.00000000       0.00000000      -1.21430016
2
Properties=species:S:1:pos:R:3:forces:R:3 energy=-3.1968882818856676 pbc="F F F"
O        0.00000000       0.00000000       0.00000000       0.00000000       0.00000000       0.86696488
O        0.00000000       0.00000000       2.41393939       0.00000000       0.00000000      -0.86696488
2
Properties=species:S:1:pos:R:3:forces:R:3 energy=-3.1550910502238194 pbc="F F F"
O        0.00000000       0.00000000       0.00000000       0.00000000       0.00000000       0.56439662
O        0.00000000       0.00000000       2.47272727       0.00000000       0.00000000      -0.56439662
2
Properties=species:S:1:pos:R:3:forces:R:3 energy=-3.129295951434714 pbc="F F F"
O        0.00000000       0.00000000       0.00000000       0.00000000       0.00000000       0.32421005
O        0.00000000       0.00000000       2.53151515       0.00000000       0.00000000      -0.32421005
2
Properties=species:S:1:pos:R:3:forces:R:3 energy=-3.1156904736576765 pbc="F F F"
O        0.00000000       0.00000000       0.00000000       0.00000000       0.00000000       0.14906903
O        0.00000000       0.00000000       2.59030303       0.00000000       0.00000000      -0.14906903
2
Properties=species:S:1:pos:R:3:forces:R:3 energy=-3.1106491962604457 pbc="F F F"
O        0.00000000       0.00000000       0.00000000       0.00000000       0.00000000       0.03091819
O        0.00000000       0.00000000       2.64909091       0.00000000       0.00000000      -0.03091819
2
Properties=species:S:1:pos:R:3:forces:R:3 energy=-3.111188977632052 pbc="F F F"
O        0.00000000       0.00000000       0.00000000       0.00000000       0.00000000      -0.04301048
O        0.00000000       0.00000000       2.70787879       0.00000000       0.00000000       0.04301048
2
Properties=species:S:1:pos:R:3:forces:R:3 energy=-3.1150953312849436 pbc="F F F"
O        0.00000000       0.00000000       0.00000000       0.00000000       0.00000000      -0.08566775
O        0.00000000       0.00000000       2.76666667       0.00000000       0.00000000       0.08566775
2
Properties=species:S:1:pos:R:3:forces:R:3 energy=-3.1208621178338047 pbc="F F F"
O        0.00000000       0.00000000       0.00000000       0.00000000       0.00000000      -0.10786733
O        0.00000000       0.00000000       2.82545455       0.00000000       0.00000000       0.10786733
2
Properties=species:S:1:pos:R:3:forces:R:3 energy=-3.127534441011151 pbc="F F F"
O        0.00000000       0.00000000       0.00000000       0.00000000       0.00000000      -0.11760090
O        0.00000000       0.00000000       2.88424242       0.00000000       0.00000000       0.11760090
2
Properties=species:S:1:pos:R:3:forces:R:3 energy=-3.1345510407112327 pbc="F F F"
O        0.00000000       0.00000000       0.00000000       0.00000000       0.00000000      -0.12025995
O        0.00000000       0.00000000       2.94303030       0.00000000       0.00000000       0.12025995
2
Properties=species:S:1:pos:R:3:forces:R:3 energy=-3.1416029004772046 pbc="F F F"
O        0.00000000       0.00000000       0.00000000       0.00000000       0.00000000      -0.11916418
O        0.00000000       0.00000000       3.00181818       0.00000000       0.00000000       0.11916418
2
Properties=species:S:1:pos:R:3:forces:R:3 energy=-3.1485256803322184 pbc="F F F"
O        0.00000000       0.00000000       0.00000000       0.00000000       0.00000000      -0.11613550
O        0.00000000       0.00000000       3.06060606       0.00000000       0.00000000       0.11613550
2
Properties=species:S:1:pos:R:3:forces:R:3 energy=-3.1552357853582036 pbc="F F F"
O        0.00000000       0.00000000       0.00000000       0.00000000       0.00000000      -0.11201933
O        0.00000000       0.00000000       3.11939394       0.00000000       0.00000000       0.11201933
2
Properties=species:S:1:pos:R:3:forces:R:3 energy=-3.161679762748365 pbc="F F F"
O        0.00000000       0.00000000       0.00000000       0.00000000       0.00000000      -0.10708147
O        0.00000000       0.00000000       3.17818182       0.00000000       0.00000000       0.10708147
2
Properties=species:S:1:pos:R:3:forces:R:3 energy=-3.167809937970649 pbc="F F F"
O        0.00000000       0.00000000       0.00000000       0.00000000       0.00000000      -0.10131683
O        0.00000000       0.00000000       3.23696970       0.00000000       0.00000000       0.10131683
2
Properties=species:S:1:pos:R:3:forces:R:3 energy=-3.17357456159838 pbc="F F F"
O        0.00000000       0.00000000       0.00000000       0.00000000       0.00000000      -0.09465177
O        0.00000000       0.00000000       3.29575758       0.00000000       0.00000000       0.09465177
2
Properties=species:S:1:pos:R:3:forces:R:3 energy=-3.1789201507304523 pbc="F F F"
O        0.00000000       0.00000000       0.00000000       0.00000000       0.00000000      -0.08705452
O        0.00000000       0.00000000       3.35454545       0.00000000       0.00000000       0.08705452
2
Properties=species:S:1:pos:R:3:forces:R:3 energy=-3.1837933389231874 pbc="F F F"
O        0.00000000       0.00000000       0.00000000       0.00000000       0.00000000      -0.07857708
O        0.00000000       0.00000000       3.41333333       0.00000000       0.00000000       0.07857708
2
Properties=species:S:1:pos:R:3:forces:R:3 energy=-3.188144174452662 pbc="F F F"
O        0.00000000       0.00000000       0.00000000       0.00000000       0.00000000      -0.06934973
O        0.00000000       0.00000000       3.47212121       0.00000000       0.00000000       0.06934973
2
Properties=species:S:1:pos:R:3:forces:R:3 energy=-3.1919356186480323 pbc="F F F"
O        0.00000000       0.00000000       0.00000000       0.00000000       0.00000000      -0.05954818
O        0.00000000       0.00000000       3.53090909       0.00000000       0.00000000       0.05954818
2
Properties=species:S:1:pos:R:3:forces:R:3 energy=-3.1951385284099696 pbc="F F F"
O        0.00000000       0.00000000       0.00000000       0.00000000       0.00000000      -0.04936141
O        0.00000000       0.00000000       3.58969697       0.00000000       0.00000000       0.04936141
2
Properties=species:S:1:pos:R:3:forces:R:3 energy=-3.1977354550688175 pbc="F F F"
O        0.00000000       0.00000000       0.00000000       0.00000000       0.00000000      -0.03896641
O        0.00000000       0.00000000       3.64848485       0.00000000       0.00000000       0.03896641
2
Properties=species:S:1:pos:R:3:forces:R:3 energy=-3.1997194655569507 pbc="F F F"
O        0.00000000       0.00000000       0.00000000       0.00000000       0.00000000      -0.02853406
O        0.00000000       0.00000000       3.70727273       0.00000000       0.00000000       0.02853406
2
Properties=species:S:1:pos:R:3:forces:R:3 energy=-3.2010922297144426 pbc="F F F"
O        0.00000000       0.00000000       0.00000000       0.00000000       0.00000000      -0.01822565
O        0.00000000       0.00000000       3.76606061       0.00000000       0.00000000       0.01822565
2
Properties=species:S:1:pos:R:3:forces:R:3 energy=-3.2018681062710646 pbc="F F F"
O        0.00000000       0.00000000       0.00000000       0.00000000       0.00000000      -0.00823128
O        0.00000000       0.00000000       3.82484848       0.00000000       0.00000000       0.00823128
2
Properties=species:S:1:pos:R:3:forces:R:3 energy=-3.2020705784469317 pbc="F F F"
O        0.00000000       0.00000000       0.00000000       0.00000000       0.00000000       0.00122336
O        0.00000000       0.00000000       3.88363636       0.00000000       0.00000000      -0.00122336
2
Properties=species:S:1:pos:R:3:forces:R:3 energy=-3.2017391960077317 pbc="F F F"
O        0.00000000       0.00000000       0.00000000       0.00000000       0.00000000       0.00989461
O        0.00000000       0.00000000       3.94242424       0.00000000       0.00000000      -0.00989461
2
Properties=species:S:1:pos:R:3:forces:R:3 energy=-3.2009276887049225 pbc="F F F"
O        0.00000000       0.00000000       0.00000000       0.00000000       0.00000000       0.01754622
O        0.00000000       0.00000000       4.00121212       0.00000000       0.00000000      -0.01754622
2
Properties=species:S:1:pos:R:3:forces:R:3 energy=-3.1996997036476875 pbc="F F F"
O        0.00000000       0.00000000       0.00000000       0.00000000       0.00000000       0.02400890
O        0.00000000       0.00000000       4.06000000       0.00000000       0.00000000      -0.02400890
2
Properties=species:S:1:pos:R:3:forces:R:3 energy=-3.1981288197561217 pbc="F F F"
O        0.00000000       0.00000000       0.00000000       0.00000000       0.00000000       0.02923218
O        0.00000000       0.00000000       4.11878788       0.00000000       0.00000000      -0.02923218
2
Properties=species:S:1:pos:R:3:forces:R:3 energy=-3.1962854616658727 pbc="F F F"
O        0.00000000       0.00000000       0.00000000       0.00000000       0.00000000       0.03330678
O        0.00000000       0.00000000       4.17757576       0.00000000       0.00000000      -0.03330678
2
Properties=species:S:1:pos:R:3:forces:R:3 energy=-3.1942309508460096 pbc="F F F"
O        0.00000000       0.00000000       0.00000000       0.00000000       0.00000000       0.03645897
O        0.00000000       0.00000000       4.23636364       0.00000000       0.00000000      -0.03645897
2
Properties=species:S:1:pos:R:3:forces:R:3 energy=-3.1920106095762137 pbc="F F F"
O        0.00000000       0.00000000       0.00000000       0.00000000       0.00000000       0.03899704
O        0.00000000       0.00000000       4.29515152       0.00000000       0.00000000      -0.03899704
2
Properties=species:S:1:pos:R:3:forces:R:3 energy=-3.189651628642811 pbc="F F F"
O        0.00000000       0.00000000       0.00000000       0.00000000       0.00000000       0.04124200
O        0.00000000       0.00000000       4.35393939       0.00000000       0.00000000      -0.04124200
2
Properties=species:S:1:pos:R:3:forces:R:3 energy=-3.187162355151862 pbc="F F F"
O        0.00000000       0.00000000       0.00000000       0.00000000       0.00000000       0.04345160
O        0.00000000       0.00000000       4.41272727       0.00000000       0.00000000      -0.04345160
2
Properties=species:S:1:pos:R:3:forces:R:3 energy=-3.18454017637937 pbc="F F F"
O        0.00000000       0.00000000       0.00000000       0.00000000       0.00000000       0.04577995
O        0.00000000       0.00000000       4.47151515       0.00000000       0.00000000      -0.04577995
2
Properties=species:S:1:pos:R:3:forces:R:3 energy=-3.1817765281453574 pbc="F F F"
O        0.00000000       0.00000000       0.00000000       0.00000000       0.00000000       0.04826030
O        0.00000000       0.00000000       4.53030303       0.00000000       0.00000000      -0.04826030
2
Properties=species:S:1:pos:R:3:forces:R:3 energy=-3.178864052221962 pbc="F F F"
O        0.00000000       0.00000000       0.00000000       0.00000000       0.00000000       0.05083816
O        0.00000000       0.00000000       4.58909091       0.00000000       0.00000000      -0.05083816
2
Properties=species:S:1:pos:R:3:forces:R:3 energy=-3.1757997014176524 pbc="F F F"
O        0.00000000       0.00000000       0.00000000       0.00000000       0.00000000       0.05340091
O        0.00000000       0.00000000       4.64787879       0.00000000       0.00000000      -0.05340091
2
Properties=species:S:1:pos:R:3:forces:R:3 energy=-3.1725880764473877 pbc="F F F"
O        0.00000000       0.00000000       0.00000000       0.00000000       0.00000000       0.05583977
O        0.00000000       0.00000000       4.70666667       0.00000000       0.00000000      -0.05583977
2
Properties=species:S:1:pos:R:3:forces:R:3 energy=-3.1692385681764867 pbc="F F F"
O        0.00000000       0.00000000       0.00000000       0.00000000       0.00000000       0.05808384
O        0.00000000       0.00000000       4.76545455       0.00000000       0.00000000      -0.05808384
2
Properties=species:S:1:pos:R:3:forces:R:3 energy=-3.1657624972906393 pbc="F F F"
O        0.00000000       0.00000000       0.00000000       0.00000000       0.00000000       0.06011584
O        0.00000000       0.00000000       4.82424242       0.00000000       0.00000000      -0.06011584
2
Properties=species:S:1:pos:R:3:forces:R:3 energy=-3.1621740687621784 pbc="F F F"
O        0.00000000       0.00000000       0.00000000       0.00000000       0.00000000       0.06195689
O        0.00000000       0.00000000       4.88303030       0.00000000       0.00000000      -0.06195689
2
Properties=species:S:1:pos:R:3:forces:R:3 energy=-3.1584817856134113 pbc="F F F"
O        0.00000000       0.00000000       0.00000000       0.00000000       0.00000000       0.06361581
O        0.00000000       0.00000000       4.94181818       0.00000000       0.00000000      -0.06361581
2
Properties=species:S:1:pos:R:3:forces:R:3 energy=-3.154698703043899 pbc="F F F"
O        0.00000000       0.00000000       0.00000000       0.00000000       0.00000000       0.06504003
O        0.00000000       0.00000000       5.00060606       0.00000000       0.00000000      -0.06504003
2
Properties=species:S:1:pos:R:3:forces:R:3 energy=-3.1508414743601643 pbc="F F F"
O        0.00000000       0.00000000       0.00000000       0.00000000       0.00000000       0.06609690
O        0.00000000       0.00000000       5.05939394       0.00000000       0.00000000      -0.06609690
2
Properties=species:S:1:pos:R:3:forces:R:3 energy=-3.146935354400041 pbc="F F F"
O        0.00000000       0.00000000       0.00000000       0.00000000       0.00000000       0.06676082
O        0.00000000       0.00000000       5.11818182       0.00000000       0.00000000      -0.06676082
2
Properties=species:S:1:pos:R:3:forces:R:3 energy=-3.1429920271492864 pbc="F F F"
O        0.00000000       0.00000000       0.00000000       0.00000000       0.00000000       0.06747315
O        0.00000000       0.00000000       5.17696970       0.00000000       0.00000000      -0.06747315
2
Properties=species:S:1:pos:R:3:forces:R:3 energy=-3.1389807569450205 pbc="F F F"
O        0.00000000       0.00000000       0.00000000       0.00000000       0.00000000       0.06926750
O        0.00000000       0.00000000       5.23575758       0.00000000       0.00000000      -0.06926750
2
Properties=species:S:1:pos:R:3:forces:R:3 energy=-3.134814556485843 pbc="F F F"
O        0.00000000       0.00000000       0.00000000       0.00000000       0.00000000       0.07268723
O        0.00000000       0.00000000       5.29454545       0.00000000       0.00000000      -0.07268723
2
Properties=species:S:1:pos:R:3:forces:R:3 energy=-3.1304331580317784 pbc="F F F"
O        0.00000000       0.00000000       0.00000000       0.00000000       0.00000000       0.07612269
O        0.00000000       0.00000000       5.35333333       0.00000000       0.00000000      -0.07612269
2
Properties=species:S:1:pos:R:3:forces:R:3 energy=-3.1259200746992364 pbc="F F F"
O        0.00000000       0.00000000       0.00000000       0.00000000       0.00000000       0.07681169
O        0.00000000       0.00000000       5.41212121       0.00000000       0.00000000      -0.07681169
2
Properties=species:S:1:pos:R:3:forces:R:3 energy=-3.121468028034642 pbc="F F F"
O        0.00000000       0.00000000       0.00000000       0.00000000       0.00000000       0.07421929
O        0.00000000       0.00000000       5.47090909       0.00000000       0.00000000      -0.07421929
2
Properties=species:S:1:pos:R:3:forces:R:3 energy=-3.117213962827919 pbc="F F F"
O        0.00000000       0.00000000       0.00000000       0.00000000       0.00000000       0.07057171
O        0.00000000       0.00000000       5.52969697       0.00000000       0.00000000      -0.07057171
2
Properties=species:S:1:pos:R:3:forces:R:3 energy=-3.1131417706988103 pbc="F F F"
O        0.00000000       0.00000000       0.00000000       0.00000000       0.00000000       0.06830079
O        0.00000000       0.00000000       5.58848485       0.00000000       0.00000000      -0.06830079
2
Properties=species:S:1:pos:R:3:forces:R:3 energy=-3.1091616824442747 pbc="F F F"
O        0.00000000       0.00000000       0.00000000       0.00000000       0.00000000       0.06712350
O        0.00000000       0.00000000       5.64727273       0.00000000       0.00000000      -0.06712350
2
Properties=species:S:1:pos:R:3:forces:R:3 energy=-3.105307200819631 pbc="F F F"
O        0.00000000       0.00000000       0.00000000       0.00000000       0.00000000       0.06304401
O        0.00000000       0.00000000       5.70606061       0.00000000       0.00000000      -0.06304401
2
Properties=species:S:1:pos:R:3:forces:R:3 energy=-3.1018776750221 pbc="F F F"
O        0.00000000       0.00000000       0.00000000       0.00000000       0.00000000       0.05216410
O        0.00000000       0.00000000       5.76484848       0.00000000       0.00000000      -0.05216410
2
Properties=species:S:1:pos:R:3:forces:R:3 energy=-3.099287141702994 pbc="F F F"
O        0.00000000       0.00000000       0.00000000       0.00000000       0.00000000       0.03540258
O        0.00000000       0.00000000       5.82363636       0.00000000       0.00000000      -0.03540258
2
Properties=species:S:1:pos:R:3:forces:R:3 energy=-3.0977386443472126 pbc="F F F"
O        0.00000000       0.00000000       0.00000000       0.00000000       0.00000000       0.01785041
O        0.00000000       0.00000000       5.88242424       0.00000000       0.00000000      -0.01785041
2
Properties=species:S:1:pos:R:3:forces:R:3 energy=-3.097097633453214 pbc="F F F"
O        0.00000000       0.00000000       0.00000000       0.00000000       0.00000000       0.00495887
O        0.00000000       0.00000000       5.94121212       0.00000000       0.00000000      -0.00495887
2
Properties=species:S:1:pos:R:3:forces:R:3 energy=-3.0969918622100048 pbc="F F F"
O        0.00000000       0.00000000       0.00000000       0.00000000       0.00000000       0.00021801
O        0.00000000       0.00000000       6.00000000       0.00000000       0.00000000      -0.00021801
