2
Properties=species:S:1:pos:R:3:forces:R:3 energy=15432.186119742526 pbc="F F F"
Os       0.00000000       0.00000000       0.00000000       0.00000000       0.00000000 -269946.59375000
Os       0.00000000       0.00000000       0.18000000       0.00000000       0.00000000  269946.59375000
2
Properties=species:S:1:pos:R:3:forces:R:3 energy=6014.278893180025 pbc="F F F"
Os       0.00000000       0.00000000       0.00000000       0.00000000       0.00000000  -88896.77343750
Os       0.00000000       0.00000000       0.23878788       0.00000000       0.00000000   88896.77343750
2
Properties=species:S:1:pos:R:3:forces:R:3 energy=2672.745690061361 pbc="F F F"
Os       0.00000000       0.00000000       0.00000000       0.00000000       0.00000000  -34429.87890625
Os       0.00000000       0.00000000       0.29757576       0.00000000       0.00000000   34429.87890625
2
Properties=species:S:1:pos:R:3:forces:R:3 energy=1317.3056265847986 pbc="F F F"
Os       0.00000000       0.00000000       0.00000000       0.00000000       0.00000000  -14747.06054688
Os       0.00000000       0.00000000       0.35636364       0.00000000       0.00000000   14747.06054688
2
Properties=species:S:1:pos:R:3:forces:R:3 energy=717.4663931863612 pbc="F F F"
Os       0.00000000       0.00000000       0.00000000       0.00000000       0.00000000   -6785.22021484
Os       0.00000000       0.00000000       0.41515152       0.00000000       0.00000000    6785.22021484
2
Properties=species:S:1:pos:R:3:forces:R:3 energy=434.39534827082184 pbc="F F F"
Os       0.00000000       0.00000000       0.00000000       0.00000000       0.00000000   -3298.90722656
Os       0.00000000       0.00000000       0.47393939       0.00000000       0.00000000    3298.90722656
2
Properties=species:S:1:pos:R:3:forces:R:3 energy=294.1401603015475 pbc="F F F"
Os       0.00000000       0.00000000       0.00000000       0.00000000       0.00000000   -1668.21228027
Os       0.00000000       0.00000000       0.53272727       0.00000000       0.00000000    1668.21228027
2
Properties=species:S:1:pos:R:3:forces:R:3 energy=222.59688640110883 pbc="F F F"
Os       0.00000000       0.00000000       0.00000000       0.00000000       0.00000000    -854.49041748
Os       0.00000000       0.00000000       0.59151515       0.00000000       0.00000000     854.49041748
2
Properties=species:S:1:pos:R:3:forces:R:3 energy=186.3864372203727 pbc="F F F"
Os       0.00000000       0.00000000       0.00000000       0.00000000       0.00000000    -420.23016357
Os       0.00000000       0.00000000       0.65030303       0.00000000       0.00000000     420.23016357
2
Properties=species:S:1:pos:R:3:forces:R:3 energy=169.50621879054106 pbc="F F F"
Os       0.00000000       0.00000000       0.00000000       0.00000000       0.00000000    -177.07170105
Os       0.00000000       0.00000000       0.70909091       0.00000000       0.00000000     177.07170105
2
Properties=species:S:1:pos:R:3:forces:R:3 energy=163.47374818245072 pbc="F F F"
Os       0.00000000       0.00000000       0.00000000       0.00000000       0.00000000     -42.04526138
Os       0.00000000       0.00000000       0.76787879       0.00000000       0.00000000      42.04526138
2
Properties=species:S:1:pos:R:3:forces:R:3 energy=163.20574296341243 pbc="F F F"
Os       0.00000000       0.00000000       0.00000000       0.00000000       0.00000000      22.80705643
Os       0.00000000       0.00000000       0.82666667       0.00000000       0.00000000     -22.80705643
2
Properties=species:S:1:pos:R:3:forces:R:3 energy=165.01238380382432 pbc="F F F"
Os       0.00000000       0.00000000       0.00000000       0.00000000       0.00000000      29.01978111
Os       0.00000000       0.00000000       0.88545455       0.00000000       0.00000000     -29.01978111
2
Properties=species:S:1:pos:R:3:forces:R:3 energy=165.509393385279 pbc="F F F"
Os       0.00000000       0.00000000       0.00000000       0.00000000       0.00000000     -20.91283989
Os       0.00000000       0.00000000       0.94424242       0.00000000       0.00000000      20.91283989
2
Properties=species:S:1:pos:R:3:forces:R:3 energy=161.68682300265027 pbc="F F F"
Os       0.00000000       0.00000000       0.00000000       0.00000000       0.00000000    -114.55623627
Os       0.00000000       0.00000000       1.00303030       0.00000000       0.00000000     114.55623627
2
Properties=species:S:1:pos:R:3:forces:R:3 energy=151.70351667542135 pbc="F F F"
Os       0.00000000       0.00000000       0.00000000       0.00000000       0.00000000    -225.16004944
Os       0.00000000       0.00000000       1.06181818       0.00000000       0.00000000     225.16004944
2
Properties=species:S:1:pos:R:3:forces:R:3 energy=135.54009579216802 pbc="F F F"
Os       0.00000000       0.00000000       0.00000000       0.00000000       0.00000000    -319.23492432
Os       0.00000000       0.00000000       1.12060606       0.00000000       0.00000000     319.23492432
2
Properties=species:S:1:pos:R:3:forces:R:3 energy=115.07283449979083 pbc="F F F"
Os       0.00000000       0.00000000       0.00000000       0.00000000       0.00000000    -367.80975342
Os       0.00000000       0.00000000       1.17939394       0.00000000       0.00000000     367.80975342
2
Properties=species:S:1:pos:R:3:forces:R:3 energy=93.40665992780235 pbc="F F F"
Os       0.00000000       0.00000000       0.00000000       0.00000000       0.00000000    -360.81759644
Os       0.00000000       0.00000000       1.23818182       0.00000000       0.00000000     360.81759644
2
Properties=species:S:1:pos:R:3:forces:R:3 energy=73.34696152801679 pbc="F F F"
Os       0.00000000       0.00000000       0.00000000       0.00000000       0.00000000    -318.62011719
Os       0.00000000       0.00000000       1.29696970       0.00000000       0.00000000     318.62011719
2
Properties=species:S:1:pos:R:3:forces:R:3 energy=56.03108756734982 pbc="F F F"
Os       0.00000000       0.00000000       0.00000000       0.00000000       0.00000000    -271.10858154
Os       0.00000000       0.00000000       1.35575758       0.00000000       0.00000000     271.10858154
2
Properties=species:S:1:pos:R:3:forces:R:3 energy=41.35930286498723 pbc="F F F"
Os       0.00000000       0.00000000       0.00000000       0.00000000       0.00000000    -229.03872681
Os       0.00000000       0.00000000       1.41454545       0.00000000       0.00000000     229.03872681
2
Properties=species:S:1:pos:R:3:forces:R:3 energy=28.97563524176372 pbc="F F F"
Os       0.00000000       0.00000000       0.00000000       0.00000000       0.00000000    -193.42858887
Os       0.00000000       0.00000000       1.47333333       0.00000000       0.00000000     193.42858887
2
Properties=species:S:1:pos:R:3:forces:R:3 energy=18.501468466041796 pbc="F F F"
Os       0.00000000       0.00000000       0.00000000       0.00000000       0.00000000    -163.32656860
Os       0.00000000       0.00000000       1.53212121       0.00000000       0.00000000     163.32656860
2
Properties=species:S:1:pos:R:3:forces:R:3 energy=9.826154541000164 pbc="F F F"
Os       0.00000000       0.00000000       0.00000000       0.00000000       0.00000000    -130.72917175
Os       0.00000000       0.00000000       1.59090909       0.00000000       0.00000000     130.72917175
2
Properties=species:S:1:pos:R:3:forces:R:3 energy=3.2261656660195777 pbc="F F F"
Os       0.00000000       0.00000000       0.00000000       0.00000000       0.00000000     -93.84466553
Os       0.00000000       0.00000000       1.64969697       0.00000000       0.00000000      93.84466553
2
Properties=species:S:1:pos:R:3:forces:R:3 energy=-1.335676987398307 pbc="F F F"
Os       0.00000000       0.00000000       0.00000000       0.00000000       0.00000000     -63.15470123
Os       0.00000000       0.00000000       1.70848485       0.00000000       0.00000000      63.15470123
2
Properties=species:S:1:pos:R:3:forces:R:3 energy=-4.41140577908284 pbc="F F F"
Os       0.00000000       0.00000000       0.00000000       0.00000000       0.00000000     -42.96783829
Os       0.00000000       0.00000000       1.76727273       0.00000000       0.00000000      42.96783829
2
Properties=species:S:1:pos:R:3:forces:R:3 energy=-6.513851417944375 pbc="F F F"
Os       0.00000000       0.00000000       0.00000000       0.00000000       0.00000000     -29.32010841
Os       0.00000000       0.00000000       1.82606061       0.00000000       0.00000000      29.32010841
2
Properties=species:S:1:pos:R:3:forces:R:3 energy=-7.9311323772834434 pbc="F F F"
Os       0.00000000       0.00000000       0.00000000       0.00000000       0.00000000     -19.43310547
Os       0.00000000       0.00000000       1.88484848       0.00000000       0.00000000      19.43310547
2
Properties=species:S:1:pos:R:3:forces:R:3 energy=-8.855556591831084 pbc="F F F"
Os       0.00000000       0.00000000       0.00000000       0.00000000       0.00000000     -12.43768883
Os       0.00000000       0.00000000       1.94363636       0.00000000       0.00000000      12.43768883
2
Properties=species:S:1:pos:R:3:forces:R:3 energy=-9.433900333628175 pbc="F F F"
Os       0.00000000       0.00000000       0.00000000       0.00000000       0.00000000      -7.50346422
Os       0.00000000       0.00000000       2.00242424       0.00000000       0.00000000       7.50346422
2
Properties=species:S:1:pos:R:3:forces:R:3 energy=-9.762042371323812 pbc="F F F"
Os       0.00000000       0.00000000       0.00000000       0.00000000       0.00000000      -3.82604289
Os       0.00000000       0.00000000       2.06121212       0.00000000       0.00000000       3.82604289
2
Properties=species:S:1:pos:R:3:forces:R:3 energy=-9.901030194938263 pbc="F F F"
Os       0.00000000       0.00000000       0.00000000       0.00000000       0.00000000      -1.03724825
Os       0.00000000       0.00000000       2.12000000       0.00000000       0.00000000       1.03724825
2
Properties=species:S:1:pos:R:3:forces:R:3 energy=-9.898690320062403 pbc="F F F"
Os       0.00000000       0.00000000       0.00000000       0.00000000       0.00000000       1.00223076
Os       0.00000000       0.00000000       2.17878788       0.00000000       0.00000000      -1.00223076
2
Properties=species:S:1:pos:R:3:forces:R:3 energy=-9.795397637013613 pbc="F F F"
Os       0.00000000       0.00000000       0.00000000       0.00000000       0.00000000       2.41850734
Os       0.00000000       0.00000000       2.23757576       0.00000000       0.00000000      -2.41850734
2
Properties=species:S:1:pos:R:3:forces:R:3 energy=-9.62417957642847 pbc="F F F"
Os       0.00000000       0.00000000       0.00000000       0.00000000       0.00000000       3.33203244
Os       0.00000000       0.00000000       2.29636364       0.00000000       0.00000000      -3.33203244
2
Properties=species:S:1:pos:R:3:forces:R:3 energy=-9.411323098647 pbc="F F F"
Os       0.00000000       0.00000000       0.00000000       0.00000000       0.00000000       3.85297823
Os       0.00000000       0.00000000       2.35515152       0.00000000       0.00000000      -3.85297823
2
Properties=species:S:1:pos:R:3:forces:R:3 energy=-9.176835270090924 pbc="F F F"
Os       0.00000000       0.00000000       0.00000000       0.00000000       0.00000000       4.08390522
Os       0.00000000       0.00000000       2.41393939       0.00000000       0.00000000      -4.08390522
2
Properties=species:S:1:pos:R:3:forces:R:3 energy=-8.935161850910465 pbc="F F F"
Os       0.00000000       0.00000000       0.00000000       0.00000000       0.00000000       4.10927343
Os       0.00000000       0.00000000       2.47272727       0.00000000       0.00000000      -4.10927343
2
Properties=species:S:1:pos:R:3:forces:R:3 energy=-8.696584746369261 pbc="F F F"
Os       0.00000000       0.00000000       0.00000000       0.00000000       0.00000000       3.98582482
Os       0.00000000       0.00000000       2.53151515       0.00000000       0.00000000      -3.98582482
2
Properties=species:S:1:pos:R:3:forces:R:3 energy=-8.468744348862609 pbc="F F F"
Os       0.00000000       0.00000000       0.00000000       0.00000000       0.00000000       3.74903131
Os       0.00000000       0.00000000       2.59030303       0.00000000       0.00000000      -3.74903131
2
Properties=species:S:1:pos:R:3:forces:R:3 energy=-8.257410737031051 pbc="F F F"
Os       0.00000000       0.00000000       0.00000000       0.00000000       0.00000000       3.42981505
Os       0.00000000       0.00000000       2.64909091       0.00000000       0.00000000      -3.42981505
2
Properties=species:S:1:pos:R:3:forces:R:3 energy=-8.06634623244339 pbc="F F F"
Os       0.00000000       0.00000000       0.00000000       0.00000000       0.00000000       3.06682086
Os       0.00000000       0.00000000       2.70787879       0.00000000       0.00000000      -3.06682086
2
Properties=species:S:1:pos:R:3:forces:R:3 energy=-7.896744176437986 pbc="F F F"
Os       0.00000000       0.00000000       0.00000000       0.00000000       0.00000000       2.70803046
Os       0.00000000       0.00000000       2.76666667       0.00000000       0.00000000      -2.70803046
2
Properties=species:S:1:pos:R:3:forces:R:3 energy=-7.746946481301078 pbc="F F F"
Os       0.00000000       0.00000000       0.00000000       0.00000000       0.00000000       2.39955211
Os       0.00000000       0.00000000       2.82545455       0.00000000       0.00000000      -2.39955211
2
Properties=species:S:1:pos:R:3:forces:R:3 energy=-7.613094767079618 pbc="F F F"
Os       0.00000000       0.00000000       0.00000000       0.00000000       0.00000000       2.16787839
Os       0.00000000       0.00000000       2.88424242       0.00000000       0.00000000      -2.16787839
2
Properties=species:S:1:pos:R:3:forces:R:3 energy=-7.490459194730797 pbc="F F F"
Os       0.00000000       0.00000000       0.00000000       0.00000000       0.00000000       2.01728463
Os       0.00000000       0.00000000       2.94303030       0.00000000       0.00000000      -2.01728463
2
Properties=species:S:1:pos:R:3:forces:R:3 energy=-7.3745224340765905 pbc="F F F"
Os       0.00000000       0.00000000       0.00000000       0.00000000       0.00000000       1.93706608
Os       0.00000000       0.00000000       3.00181818       0.00000000       0.00000000      -1.93706608
2
Properties=species:S:1:pos:R:3:forces:R:3 energy=-7.261787427616046 pbc="F F F"
Os       0.00000000       0.00000000       0.00000000       0.00000000       0.00000000       1.90349793
Os       0.00000000       0.00000000       3.06060606       0.00000000       0.00000000      -1.90349793
2
Properties=species:S:1:pos:R:3:forces:R:3 energy=-7.150415317987799 pbc="F F F"
Os       0.00000000       0.00000000       0.00000000       0.00000000       0.00000000       1.88550198
Os       0.00000000       0.00000000       3.11939394       0.00000000       0.00000000      -1.88550198
2
Properties=species:S:1:pos:R:3:forces:R:3 energy=-7.0403364140193165 pbc="F F F"
Os       0.00000000       0.00000000       0.00000000       0.00000000       0.00000000       1.85579371
Os       0.00000000       0.00000000       3.17818182       0.00000000       0.00000000      -1.85579371
2
Properties=species:S:1:pos:R:3:forces:R:3 energy=-6.9327469958929235 pbc="F F F"
Os       0.00000000       0.00000000       0.00000000       0.00000000       0.00000000       1.79961944
Os       0.00000000       0.00000000       3.23696970       0.00000000       0.00000000      -1.79961944
2
Properties=species:S:1:pos:R:3:forces:R:3 energy=-6.829281521363367 pbc="F F F"
Os       0.00000000       0.00000000       0.00000000       0.00000000       0.00000000       1.71636760
Os       0.00000000       0.00000000       3.29575758       0.00000000       0.00000000      -1.71636760
2
Properties=species:S:1:pos:R:3:forces:R:3 energy=-6.731303961778848 pbc="F F F"
Os       0.00000000       0.00000000       0.00000000       0.00000000       0.00000000       1.61477804
Os       0.00000000       0.00000000       3.35454545       0.00000000       0.00000000      -1.61477804
2
Properties=species:S:1:pos:R:3:forces:R:3 energy=-6.639565308976826 pbc="F F F"
Os       0.00000000       0.00000000       0.00000000       0.00000000       0.00000000       1.50581861
Os       0.00000000       0.00000000       3.41333333       0.00000000       0.00000000      -1.50581861
2
Properties=species:S:1:pos:R:3:forces:R:3 energy=-6.5542421640879285 pbc="F F F"
Os       0.00000000       0.00000000       0.00000000       0.00000000       0.00000000       1.39739692
Os       0.00000000       0.00000000       3.47212121       0.00000000       0.00000000      -1.39739692
2
Properties=species:S:1:pos:R:3:forces:R:3 energy=-6.475189174461982 pbc="F F F"
Os       0.00000000       0.00000000       0.00000000       0.00000000       0.00000000       1.29277563
Os       0.00000000       0.00000000       3.53090909       0.00000000       0.00000000      -1.29277563
2
Properties=species:S:1:pos:R:3:forces:R:3 energy=-6.402169997082789 pbc="F F F"
Os       0.00000000       0.00000000       0.00000000       0.00000000       0.00000000       1.19185400
Os       0.00000000       0.00000000       3.58969697       0.00000000       0.00000000      -1.19185400
2
Properties=species:S:1:pos:R:3:forces:R:3 energy=-6.335006564437767 pbc="F F F"
Os       0.00000000       0.00000000       0.00000000       0.00000000       0.00000000       1.09342527
Os       0.00000000       0.00000000       3.64848485       0.00000000       0.00000000      -1.09342527
2
Properties=species:S:1:pos:R:3:forces:R:3 energy=-6.273577265868324 pbc="F F F"
Os       0.00000000       0.00000000       0.00000000       0.00000000       0.00000000       0.99675173
Os       0.00000000       0.00000000       3.70727273       0.00000000       0.00000000      -0.99675173
2
Properties=species:S:1:pos:R:3:forces:R:3 energy=-6.217774022722165 pbc="F F F"
Os       0.00000000       0.00000000       0.00000000       0.00000000       0.00000000       0.90205997
Os       0.00000000       0.00000000       3.76606061       0.00000000       0.00000000      -0.90205997
2
Properties=species:S:1:pos:R:3:forces:R:3 energy=-6.167460415382383 pbc="F F F"
Os       0.00000000       0.00000000       0.00000000       0.00000000       0.00000000       0.81023407
Os       0.00000000       0.00000000       3.82484848       0.00000000       0.00000000      -0.81023407
2
Properties=species:S:1:pos:R:3:forces:R:3 energy=-6.122435465818194 pbc="F F F"
Os       0.00000000       0.00000000       0.00000000       0.00000000       0.00000000       0.72222382
Os       0.00000000       0.00000000       3.88363636       0.00000000       0.00000000      -0.72222382
2
Properties=species:S:1:pos:R:3:forces:R:3 energy=-6.0824565891249724 pbc="F F F"
Os       0.00000000       0.00000000       0.00000000       0.00000000       0.00000000       0.63865757
Os       0.00000000       0.00000000       3.94242424       0.00000000       0.00000000      -0.63865757
2
Properties=species:S:1:pos:R:3:forces:R:3 energy=-6.047253443976594 pbc="F F F"
Os       0.00000000       0.00000000       0.00000000       0.00000000       0.00000000       0.55977094
Os       0.00000000       0.00000000       4.00121212       0.00000000       0.00000000      -0.55977094
2
Properties=species:S:1:pos:R:3:forces:R:3 energy=-6.016548420784129 pbc="F F F"
Os       0.00000000       0.00000000       0.00000000       0.00000000       0.00000000       0.48562247
Os       0.00000000       0.00000000       4.06000000       0.00000000       0.00000000      -0.48562247
2
Properties=species:S:1:pos:R:3:forces:R:3 energy=-5.99005870743558 pbc="F F F"
Os       0.00000000       0.00000000       0.00000000       0.00000000       0.00000000       0.41645789
Os       0.00000000       0.00000000       4.11878788       0.00000000       0.00000000      -0.41645789
2
Properties=species:S:1:pos:R:3:forces:R:3 energy=-5.967472829240468 pbc="F F F"
Os       0.00000000       0.00000000       0.00000000       0.00000000       0.00000000       0.35294348
Os       0.00000000       0.00000000       4.17757576       0.00000000       0.00000000      -0.35294348
2
Properties=species:S:1:pos:R:3:forces:R:3 energy=-5.948427378943745 pbc="F F F"
Os       0.00000000       0.00000000       0.00000000       0.00000000       0.00000000       0.29623178
Os       0.00000000       0.00000000       4.23636364       0.00000000       0.00000000      -0.29623178
2
Properties=species:S:1:pos:R:3:forces:R:3 energy=-5.932481668328674 pbc="F F F"
Os       0.00000000       0.00000000       0.00000000       0.00000000       0.00000000       0.24773541
Os       0.00000000       0.00000000       4.29515152       0.00000000       0.00000000      -0.24773541
2
Properties=species:S:1:pos:R:3:forces:R:3 energy=-5.9191139705403675 pbc="F F F"
Os       0.00000000       0.00000000       0.00000000       0.00000000       0.00000000       0.20872413
Os       0.00000000       0.00000000       4.35393939       0.00000000       0.00000000      -0.20872413
2
Properties=species:S:1:pos:R:3:forces:R:3 energy=-5.907741967062786 pbc="F F F"
Os       0.00000000       0.00000000       0.00000000       0.00000000       0.00000000       0.17983596
Os       0.00000000       0.00000000       4.41272727       0.00000000       0.00000000      -0.17983596
2
Properties=species:S:1:pos:R:3:forces:R:3 energy=-5.897776636653263 pbc="F F F"
Os       0.00000000       0.00000000       0.00000000       0.00000000       0.00000000       0.16073027
Os       0.00000000       0.00000000       4.47151515       0.00000000       0.00000000      -0.16073027
2
Properties=species:S:1:pos:R:3:forces:R:3 energy=-5.888679857603983 pbc="F F F"
Os       0.00000000       0.00000000       0.00000000       0.00000000       0.00000000       0.14996511
Os       0.00000000       0.00000000       4.53030303       0.00000000       0.00000000      -0.14996511
2
Properties=species:S:1:pos:R:3:forces:R:3 energy=-5.880026822724551 pbc="F F F"
Os       0.00000000       0.00000000       0.00000000       0.00000000       0.00000000       0.14519657
Os       0.00000000       0.00000000       4.58909091       0.00000000       0.00000000      -0.14519657
2
Properties=species:S:1:pos:R:3:forces:R:3 energy=-5.8715456199939435 pbc="F F F"
Os       0.00000000       0.00000000       0.00000000       0.00000000       0.00000000       0.14363170
Os       0.00000000       0.00000000       4.64787879       0.00000000       0.00000000      -0.14363170
2
Properties=species:S:1:pos:R:3:forces:R:3 energy=-5.863129430753829 pbc="F F F"
Os       0.00000000       0.00000000       0.00000000       0.00000000       0.00000000       0.14258626
Os       0.00000000       0.00000000       4.70666667       0.00000000       0.00000000      -0.14258626
2
Properties=species:S:1:pos:R:3:forces:R:3 energy=-5.854811769022386 pbc="F F F"
Os       0.00000000       0.00000000       0.00000000       0.00000000       0.00000000       0.14001368
Os       0.00000000       0.00000000       4.76545455       0.00000000       0.00000000      -0.14001368
2
Properties=species:S:1:pos:R:3:forces:R:3 energy=-5.846718648890837 pbc="F F F"
Os       0.00000000       0.00000000       0.00000000       0.00000000       0.00000000       0.13483611
Os       0.00000000       0.00000000       4.82424242       0.00000000       0.00000000      -0.13483611
2
Properties=species:S:1:pos:R:3:forces:R:3 energy=-5.839010400886688 pbc="F F F"
Os       0.00000000       0.00000000       0.00000000       0.00000000       0.00000000       0.12704988
Os       0.00000000       0.00000000       4.88303030       0.00000000       0.00000000      -0.12704988
2
Properties=species:S:1:pos:R:3:forces:R:3 energy=-5.831814715198778 pbc="F F F"
Os       0.00000000       0.00000000       0.00000000       0.00000000       0.00000000       0.11756590
Os       0.00000000       0.00000000       4.94181818       0.00000000       0.00000000      -0.11756590
2
Properties=species:S:1:pos:R:3:forces:R:3 energy=-5.82519188324989 pbc="F F F"
Os       0.00000000       0.00000000       0.00000000       0.00000000       0.00000000       0.10781910
Os       0.00000000       0.00000000       5.00060606       0.00000000       0.00000000      -0.10781910
2
Properties=species:S:1:pos:R:3:forces:R:3 energy=-5.819116102845091 pbc="F F F"
Os       0.00000000       0.00000000       0.00000000       0.00000000       0.00000000       0.09911793
Os       0.00000000       0.00000000       5.05939394       0.00000000       0.00000000      -0.09911793
2
Properties=species:S:1:pos:R:3:forces:R:3 energy=-5.813508286484896 pbc="F F F"
Os       0.00000000       0.00000000       0.00000000       0.00000000       0.00000000       0.09189974
Os       0.00000000       0.00000000       5.11818182       0.00000000       0.00000000      -0.09189974
2
Properties=species:S:1:pos:R:3:forces:R:3 energy=-5.808298051779745 pbc="F F F"
Os       0.00000000       0.00000000       0.00000000       0.00000000       0.00000000       0.08535612
Os       0.00000000       0.00000000       5.17696970       0.00000000       0.00000000      -0.08535612
2
Properties=species:S:1:pos:R:3:forces:R:3 energy=-5.803484747102786 pbc="F F F"
Os       0.00000000       0.00000000       0.00000000       0.00000000       0.00000000       0.07823501
Os       0.00000000       0.00000000       5.23575758       0.00000000       0.00000000      -0.07823501
2
Properties=species:S:1:pos:R:3:forces:R:3 energy=-5.799111612100405 pbc="F F F"
Os       0.00000000       0.00000000       0.00000000       0.00000000       0.00000000       0.07055254
Os       0.00000000       0.00000000       5.29454545       0.00000000       0.00000000      -0.07055254
2
Properties=species:S:1:pos:R:3:forces:R:3 energy=-5.795168102102519 pbc="F F F"
Os       0.00000000       0.00000000       0.00000000       0.00000000       0.00000000       0.06394397
Os       0.00000000       0.00000000       5.35333333       0.00000000       0.00000000      -0.06394397
2
Properties=species:S:1:pos:R:3:forces:R:3 energy=-5.791548837361376 pbc="F F F"
Os       0.00000000       0.00000000       0.00000000       0.00000000       0.00000000       0.05953776
Os       0.00000000       0.00000000       5.41212121       0.00000000       0.00000000      -0.05953776
2
Properties=species:S:1:pos:R:3:forces:R:3 energy=-5.788146591049139 pbc="F F F"
Os       0.00000000       0.00000000       0.00000000       0.00000000       0.00000000       0.05613618
Os       0.00000000       0.00000000       5.47090909       0.00000000       0.00000000      -0.05613618
2
Properties=species:S:1:pos:R:3:forces:R:3 energy=-5.784985844843865 pbc="F F F"
Os       0.00000000       0.00000000       0.00000000       0.00000000       0.00000000       0.05081628
Os       0.00000000       0.00000000       5.52969697       0.00000000       0.00000000      -0.05081628
2
Properties=species:S:1:pos:R:3:forces:R:3 energy=-5.782262396507954 pbc="F F F"
Os       0.00000000       0.00000000       0.00000000       0.00000000       0.00000000       0.04097865
Os       0.00000000       0.00000000       5.58848485       0.00000000       0.00000000      -0.04097865
2
Properties=species:S:1:pos:R:3:forces:R:3 energy=-5.780259919721101 pbc="F F F"
Os       0.00000000       0.00000000       0.00000000       0.00000000       0.00000000       0.02662687
Os       0.00000000       0.00000000       5.64727273       0.00000000       0.00000000      -0.02662687
2
Properties=species:S:1:pos:R:3:forces:R:3 energy=-5.779146384708057 pbc="F F F"
Os       0.00000000       0.00000000       0.00000000       0.00000000       0.00000000       0.01163574
Os       0.00000000       0.00000000       5.70606061       0.00000000       0.00000000      -0.01163574
2
Properties=species:S:1:pos:R:3:forces:R:3 energy=-5.778786716672344 pbc="F F F"
Os       0.00000000       0.00000000       0.00000000       0.00000000       0.00000000       0.00194069
Os       0.00000000       0.00000000       5.76484848       0.00000000       0.00000000      -0.00194069
2
Properties=species:S:1:pos:R:3:forces:R:3 energy=-5.778750932122249 pbc="F F F"
Os       0.00000000       0.00000000       0.00000000       0.00000000       0.00000000       0.00057548
Os       0.00000000       0.00000000       5.82363636       0.00000000       0.00000000      -0.00057548
2
Properties=species:S:1:pos:R:3:forces:R:3 energy=-5.778602143762654 pbc="F F F"
Os       0.00000000       0.00000000       0.00000000       0.00000000       0.00000000       0.00491360
Os       0.00000000       0.00000000       5.88242424       0.00000000       0.00000000      -0.00491360
2
Properties=species:S:1:pos:R:3:forces:R:3 energy=-5.778165103762384 pbc="F F F"
Os       0.00000000       0.00000000       0.00000000       0.00000000       0.00000000       0.00970420
Os       0.00000000       0.00000000       5.94121212       0.00000000       0.00000000      -0.00970420
2
Properties=species:S:1:pos:R:3:forces:R:3 energy=-5.77752714792506 pbc="F F F"
Os       0.00000000       0.00000000       0.00000000       0.00000000       0.00000000       0.01128462
Os       0.00000000       0.00000000       6.00000000       0.00000000       0.00000000      -0.01128462
