2
Properties=species:S:1:pos:R:3:forces:R:3 energy=19547.730690197375 pbc="F F F"
Pa       0.00000000       0.00000000       0.00000000       0.00000000       0.00000000 -351394.56250000
Pa       0.00000000       0.00000000       0.18000000       0.00000000       0.00000000  351394.56250000
2
Properties=species:S:1:pos:R:3:forces:R:3 energy=7389.334694103625 pbc="F F F"
Pa       0.00000000       0.00000000       0.00000000       0.00000000       0.00000000 -113372.63281250
Pa       0.00000000       0.00000000       0.23878788       0.00000000       0.00000000  113372.63281250
2
Properties=species:S:1:pos:R:3:forces:R:3 energy=3166.0209734005 pbc="F F F"
Pa       0.00000000       0.00000000       0.00000000       0.00000000       0.00000000  -42975.37109375
Pa       0.00000000       0.00000000       0.29757576       0.00000000       0.00000000   42975.37109375
2
Properties=species:S:1:pos:R:3:forces:R:3 energy=1489.3864519287968 pbc="F F F"
Pa       0.00000000       0.00000000       0.00000000       0.00000000       0.00000000  -18030.99414062
Pa       0.00000000       0.00000000       0.35636364       0.00000000       0.00000000   18030.99414062
2
Properties=species:S:1:pos:R:3:forces:R:3 energy=761.7123186280155 pbc="F F F"
Pa       0.00000000       0.00000000       0.00000000       0.00000000       0.00000000   -8155.18798828
Pa       0.00000000       0.00000000       0.41515152       0.00000000       0.00000000    8155.18798828
2
Properties=species:S:1:pos:R:3:forces:R:3 energy=423.300514441468 pbc="F F F"
Pa       0.00000000       0.00000000       0.00000000       0.00000000       0.00000000   -3923.44824219
Pa       0.00000000       0.00000000       0.47393939       0.00000000       0.00000000    3923.44824219
2
Properties=species:S:1:pos:R:3:forces:R:3 energy=256.58310722757676 pbc="F F F"
Pa       0.00000000       0.00000000       0.00000000       0.00000000       0.00000000   -1988.02990723
Pa       0.00000000       0.00000000       0.53272727       0.00000000       0.00000000    1988.02990723
2
Properties=species:S:1:pos:R:3:forces:R:3 energy=170.47296931346625 pbc="F F F"
Pa       0.00000000       0.00000000       0.00000000       0.00000000       0.00000000   -1049.11865234
Pa       0.00000000       0.00000000       0.59151515       0.00000000       0.00000000    1049.11865234
2
Properties=species:S:1:pos:R:3:forces:R:3 energy=124.44606810636292 pbc="F F F"
Pa       0.00000000       0.00000000       0.00000000       0.00000000       0.00000000    -567.74310303
Pa       0.00000000       0.00000000       0.65030303       0.00000000       0.00000000     567.74310303
2
Properties=species:S:1:pos:R:3:forces:R:3 energy=99.45041692460217 pbc="F F F"
Pa       0.00000000       0.00000000       0.00000000       0.00000000       0.00000000    -308.16830444
Pa       0.00000000       0.00000000       0.70909091       0.00000000       0.00000000     308.16830444
2
Properties=species:S:1:pos:R:3:forces:R:3 energy=86.00992630331623 pbc="F F F"
Pa       0.00000000       0.00000000       0.00000000       0.00000000       0.00000000    -162.77975464
Pa       0.00000000       0.00000000       0.76787879       0.00000000       0.00000000     162.77975464
2
Properties=species:S:1:pos:R:3:forces:R:3 energy=79.080994252759 pbc="F F F"
Pa       0.00000000       0.00000000       0.00000000       0.00000000       0.00000000     -80.99044800
Pa       0.00000000       0.00000000       0.82666667       0.00000000       0.00000000      80.99044800
2
Properties=species:S:1:pos:R:3:forces:R:3 energy=75.73244557901074 pbc="F F F"
Pa       0.00000000       0.00000000       0.00000000       0.00000000       0.00000000     -38.03747177
Pa       0.00000000       0.00000000       0.88545455       0.00000000       0.00000000      38.03747177
2
Properties=species:S:1:pos:R:3:forces:R:3 energy=74.13106645057655 pbc="F F F"
Pa       0.00000000       0.00000000       0.00000000       0.00000000       0.00000000     -19.54668045
Pa       0.00000000       0.00000000       0.94424242       0.00000000       0.00000000      19.54668045
2
Properties=species:S:1:pos:R:3:forces:R:3 energy=73.16614681211249 pbc="F F F"
Pa       0.00000000       0.00000000       0.00000000       0.00000000       0.00000000     -14.86958694
Pa       0.00000000       0.00000000       1.00303030       0.00000000       0.00000000      14.86958694
2
Properties=species:S:1:pos:R:3:forces:R:3 energy=72.24634753961911 pbc="F F F"
Pa       0.00000000       0.00000000       0.00000000       0.00000000       0.00000000     -17.33873749
Pa       0.00000000       0.00000000       1.06181818       0.00000000       0.00000000      17.33873749
2
Properties=species:S:1:pos:R:3:forces:R:3 energy=71.02563748214544 pbc="F F F"
Pa       0.00000000       0.00000000       0.00000000       0.00000000       0.00000000     -25.07640266
Pa       0.00000000       0.00000000       1.12060606       0.00000000       0.00000000      25.07640266
2
Properties=species:S:1:pos:R:3:forces:R:3 energy=69.18920499650498 pbc="F F F"
Pa       0.00000000       0.00000000       0.00000000       0.00000000       0.00000000     -38.34310913
Pa       0.00000000       0.00000000       1.17939394       0.00000000       0.00000000      38.34310913
2
Properties=species:S:1:pos:R:3:forces:R:3 energy=66.41090877596099 pbc="F F F"
Pa       0.00000000       0.00000000       0.00000000       0.00000000       0.00000000     -56.99898529
Pa       0.00000000       0.00000000       1.23818182       0.00000000       0.00000000      56.99898529
2
Properties=species:S:1:pos:R:3:forces:R:3 energy=62.41046779163281 pbc="F F F"
Pa       0.00000000       0.00000000       0.00000000       0.00000000       0.00000000     -79.51599884
Pa       0.00000000       0.00000000       1.29696970       0.00000000       0.00000000      79.51599884
2
Properties=species:S:1:pos:R:3:forces:R:3 energy=57.04988927333274 pbc="F F F"
Pa       0.00000000       0.00000000       0.00000000       0.00000000       0.00000000    -102.61374664
Pa       0.00000000       0.00000000       1.35575758       0.00000000       0.00000000     102.61374664
2
Properties=species:S:1:pos:R:3:forces:R:3 energy=50.41145632977933 pbc="F F F"
Pa       0.00000000       0.00000000       0.00000000       0.00000000       0.00000000    -122.39920044
Pa       0.00000000       0.00000000       1.41454545       0.00000000       0.00000000     122.39920044
2
Properties=species:S:1:pos:R:3:forces:R:3 energy=42.77771987411047 pbc="F F F"
Pa       0.00000000       0.00000000       0.00000000       0.00000000       0.00000000    -136.17367554
Pa       0.00000000       0.00000000       1.47333333       0.00000000       0.00000000     136.17367554
2
Properties=species:S:1:pos:R:3:forces:R:3 energy=34.5373709435115 pbc="F F F"
Pa       0.00000000       0.00000000       0.00000000       0.00000000       0.00000000    -143.01524353
Pa       0.00000000       0.00000000       1.53212121       0.00000000       0.00000000     143.01524353
2
Properties=species:S:1:pos:R:3:forces:R:3 energy=26.097342495505863 pbc="F F F"
Pa       0.00000000       0.00000000       0.00000000       0.00000000       0.00000000    -142.92733765
Pa       0.00000000       0.00000000       1.59090909       0.00000000       0.00000000     142.92733765
2
Properties=species:S:1:pos:R:3:forces:R:3 energy=17.89503552536269 pbc="F F F"
Pa       0.00000000       0.00000000       0.00000000       0.00000000       0.00000000    -134.47671509
Pa       0.00000000       0.00000000       1.64969697       0.00000000       0.00000000     134.47671509
2
Properties=species:S:1:pos:R:3:forces:R:3 energy=10.500175209087248 pbc="F F F"
Pa       0.00000000       0.00000000       0.00000000       0.00000000       0.00000000    -115.32552338
Pa       0.00000000       0.00000000       1.70848485       0.00000000       0.00000000     115.32552338
2
Properties=species:S:1:pos:R:3:forces:R:3 energy=4.485886634979238 pbc="F F F"
Pa       0.00000000       0.00000000       0.00000000       0.00000000       0.00000000     -88.74763489
Pa       0.00000000       0.00000000       1.76727273       0.00000000       0.00000000      88.74763489
2
Properties=species:S:1:pos:R:3:forces:R:3 energy=0.031695381145486465 pbc="F F F"
Pa       0.00000000       0.00000000       0.00000000       0.00000000       0.00000000     -63.74264145
Pa       0.00000000       0.00000000       1.82606061       0.00000000       0.00000000      63.74264145
2
Properties=species:S:1:pos:R:3:forces:R:3 energy=-3.152083812078003 pbc="F F F"
Pa       0.00000000       0.00000000       0.00000000       0.00000000       0.00000000     -45.79166794
Pa       0.00000000       0.00000000       1.88484848       0.00000000       0.00000000      45.79166794
2
Properties=species:S:1:pos:R:3:forces:R:3 energy=-5.468631967719976 pbc="F F F"
Pa       0.00000000       0.00000000       0.00000000       0.00000000       0.00000000     -33.74185562
Pa       0.00000000       0.00000000       1.94363636       0.00000000       0.00000000      33.74185562
2
Properties=species:S:1:pos:R:3:forces:R:3 energy=-7.179543340932374 pbc="F F F"
Pa       0.00000000       0.00000000       0.00000000       0.00000000       0.00000000     -24.83290100
Pa       0.00000000       0.00000000       2.00242424       0.00000000       0.00000000      24.83290100
2
Properties=species:S:1:pos:R:3:forces:R:3 energy=-8.424749970946824 pbc="F F F"
Pa       0.00000000       0.00000000       0.00000000       0.00000000       0.00000000     -17.81234932
Pa       0.00000000       0.00000000       2.06121212       0.00000000       0.00000000      17.81234932
2
Properties=species:S:1:pos:R:3:forces:R:3 energy=-9.30527423597545 pbc="F F F"
Pa       0.00000000       0.00000000       0.00000000       0.00000000       0.00000000     -12.38833141
Pa       0.00000000       0.00000000       2.12000000       0.00000000       0.00000000      12.38833141
2
Properties=species:S:1:pos:R:3:forces:R:3 energy=-9.906160578705569 pbc="F F F"
Pa       0.00000000       0.00000000       0.00000000       0.00000000       0.00000000      -8.23284817
Pa       0.00000000       0.00000000       2.17878788       0.00000000       0.00000000       8.23284817
2
Properties=species:S:1:pos:R:3:forces:R:3 energy=-10.291713848451753 pbc="F F F"
Pa       0.00000000       0.00000000       0.00000000       0.00000000       0.00000000      -5.02579498
Pa       0.00000000       0.00000000       2.23757576       0.00000000       0.00000000       5.02579498
2
Properties=species:S:1:pos:R:3:forces:R:3 energy=-10.512262746736479 pbc="F F F"
Pa       0.00000000       0.00000000       0.00000000       0.00000000       0.00000000      -2.59265232
Pa       0.00000000       0.00000000       2.29636364       0.00000000       0.00000000       2.59265232
2
Properties=species:S:1:pos:R:3:forces:R:3 energy=-10.60842657885303 pbc="F F F"
Pa       0.00000000       0.00000000       0.00000000       0.00000000       0.00000000      -0.76719326
Pa       0.00000000       0.00000000       2.35515152       0.00000000       0.00000000       0.76719326
2
Properties=species:S:1:pos:R:3:forces:R:3 energy=-10.611710295953772 pbc="F F F"
Pa       0.00000000       0.00000000       0.00000000       0.00000000       0.00000000       0.58461380
Pa       0.00000000       0.00000000       2.41393939       0.00000000       0.00000000      -0.58461380
2
Properties=species:S:1:pos:R:3:forces:R:3 energy=-10.547279826695076 pbc="F F F"
Pa       0.00000000       0.00000000       0.00000000       0.00000000       0.00000000       1.54880226
Pa       0.00000000       0.00000000       2.47272727       0.00000000       0.00000000      -1.54880226
2
Properties=species:S:1:pos:R:3:forces:R:3 energy=-10.435785274447086 pbc="F F F"
Pa       0.00000000       0.00000000       0.00000000       0.00000000       0.00000000       2.19784045
Pa       0.00000000       0.00000000       2.53151515       0.00000000       0.00000000      -2.19784045
2
Properties=species:S:1:pos:R:3:forces:R:3 energy=-10.293604218286006 pbc="F F F"
Pa       0.00000000       0.00000000       0.00000000       0.00000000       0.00000000       2.60504341
Pa       0.00000000       0.00000000       2.59030303       0.00000000       0.00000000      -2.60504341
2
Properties=species:S:1:pos:R:3:forces:R:3 energy=-10.132873260274268 pbc="F F F"
Pa       0.00000000       0.00000000       0.00000000       0.00000000       0.00000000       2.83955860
Pa       0.00000000       0.00000000       2.64909091       0.00000000       0.00000000      -2.83955860
2
Properties=species:S:1:pos:R:3:forces:R:3 energy=-9.961979015678018 pbc="F F F"
Pa       0.00000000       0.00000000       0.00000000       0.00000000       0.00000000       2.95933890
Pa       0.00000000       0.00000000       2.70787879       0.00000000       0.00000000      -2.95933890
2
Properties=species:S:1:pos:R:3:forces:R:3 energy=-9.786290661555011 pbc="F F F"
Pa       0.00000000       0.00000000       0.00000000       0.00000000       0.00000000       3.00905800
Pa       0.00000000       0.00000000       2.76666667       0.00000000       0.00000000      -3.00905800
2
Properties=species:S:1:pos:R:3:forces:R:3 energy=-9.60890457899767 pbc="F F F"
Pa       0.00000000       0.00000000       0.00000000       0.00000000       0.00000000       3.02176857
Pa       0.00000000       0.00000000       2.82545455       0.00000000       0.00000000      -3.02176857
2
Properties=species:S:1:pos:R:3:forces:R:3 energy=-9.431269275907402 pbc="F F F"
Pa       0.00000000       0.00000000       0.00000000       0.00000000       0.00000000       3.02065301
Pa       0.00000000       0.00000000       2.88424242       0.00000000       0.00000000      -3.02065301
2
Properties=species:S:1:pos:R:3:forces:R:3 energy=-9.253750573739435 pbc="F F F"
Pa       0.00000000       0.00000000       0.00000000       0.00000000       0.00000000       3.01913071
Pa       0.00000000       0.00000000       2.94303030       0.00000000       0.00000000      -3.01913071
2
Properties=species:S:1:pos:R:3:forces:R:3 energy=-9.076227970732779 pbc="F F F"
Pa       0.00000000       0.00000000       0.00000000       0.00000000       0.00000000       3.02051735
Pa       0.00000000       0.00000000       3.00181818       0.00000000       0.00000000      -3.02051735
2
Properties=species:S:1:pos:R:3:forces:R:3 energy=-8.898672403819225 pbc="F F F"
Pa       0.00000000       0.00000000       0.00000000       0.00000000       0.00000000       3.01859617
Pa       0.00000000       0.00000000       3.06060606       0.00000000       0.00000000      -3.01859617
2
Properties=species:S:1:pos:R:3:forces:R:3 energy=-8.721640163220222 pbc="F F F"
Pa       0.00000000       0.00000000       0.00000000       0.00000000       0.00000000       3.00005245
Pa       0.00000000       0.00000000       3.11939394       0.00000000       0.00000000      -3.00005245
2
Properties=species:S:1:pos:R:3:forces:R:3 energy=-8.546561180858772 pbc="F F F"
Pa       0.00000000       0.00000000       0.00000000       0.00000000       0.00000000       2.94988012
Pa       0.00000000       0.00000000       3.17818182       0.00000000       0.00000000      -2.94988012
2
Properties=species:S:1:pos:R:3:forces:R:3 energy=-8.375605148487779 pbc="F F F"
Pa       0.00000000       0.00000000       0.00000000       0.00000000       0.00000000       2.85936928
Pa       0.00000000       0.00000000       3.23696970       0.00000000       0.00000000      -2.85936928
2
Properties=species:S:1:pos:R:3:forces:R:3 energy=-8.21109144671395 pbc="F F F"
Pa       0.00000000       0.00000000       0.00000000       0.00000000       0.00000000       2.73246813
Pa       0.00000000       0.00000000       3.29575758       0.00000000       0.00000000      -2.73246813
2
Properties=species:S:1:pos:R:3:forces:R:3 energy=-8.054734851969974 pbc="F F F"
Pa       0.00000000       0.00000000       0.00000000       0.00000000       0.00000000       2.58520269
Pa       0.00000000       0.00000000       3.35454545       0.00000000       0.00000000      -2.58520269
2
Properties=species:S:1:pos:R:3:forces:R:3 energy=-7.907138679286105 pbc="F F F"
Pa       0.00000000       0.00000000       0.00000000       0.00000000       0.00000000       2.43747807
Pa       0.00000000       0.00000000       3.41333333       0.00000000       0.00000000      -2.43747807
2
Properties=species:S:1:pos:R:3:forces:R:3 energy=-7.767878900371164 pbc="F F F"
Pa       0.00000000       0.00000000       0.00000000       0.00000000       0.00000000       2.30298042
Pa       0.00000000       0.00000000       3.47212121       0.00000000       0.00000000      -2.30298042
2
Properties=species:S:1:pos:R:3:forces:R:3 energy=-7.636052412973625 pbc="F F F"
Pa       0.00000000       0.00000000       0.00000000       0.00000000       0.00000000       2.18412113
Pa       0.00000000       0.00000000       3.53090909       0.00000000       0.00000000      -2.18412113
2
Properties=species:S:1:pos:R:3:forces:R:3 energy=-7.510897309325947 pbc="F F F"
Pa       0.00000000       0.00000000       0.00000000       0.00000000       0.00000000       2.07447672
Pa       0.00000000       0.00000000       3.58969697       0.00000000       0.00000000      -2.07447672
2
Properties=species:S:1:pos:R:3:forces:R:3 energy=-7.392134101480515 pbc="F F F"
Pa       0.00000000       0.00000000       0.00000000       0.00000000       0.00000000       1.96542060
Pa       0.00000000       0.00000000       3.64848485       0.00000000       0.00000000      -1.96542060
2
Properties=species:S:1:pos:R:3:forces:R:3 energy=-7.279904399385564 pbc="F F F"
Pa       0.00000000       0.00000000       0.00000000       0.00000000       0.00000000       1.85185099
Pa       0.00000000       0.00000000       3.70727273       0.00000000       0.00000000      -1.85185099
2
Properties=species:S:1:pos:R:3:forces:R:3 energy=-7.174482272348998 pbc="F F F"
Pa       0.00000000       0.00000000       0.00000000       0.00000000       0.00000000       1.73427856
Pa       0.00000000       0.00000000       3.76606061       0.00000000       0.00000000      -1.73427856
2
Properties=species:S:1:pos:R:3:forces:R:3 energy=-7.075979589017202 pbc="F F F"
Pa       0.00000000       0.00000000       0.00000000       0.00000000       0.00000000       1.61753201
Pa       0.00000000       0.00000000       3.82484848       0.00000000       0.00000000      -1.61753201
2
Properties=species:S:1:pos:R:3:forces:R:3 energy=-6.984160126911073 pbc="F F F"
Pa       0.00000000       0.00000000       0.00000000       0.00000000       0.00000000       1.50783038
Pa       0.00000000       0.00000000       3.88363636       0.00000000       0.00000000      -1.50783038
2
Properties=species:S:1:pos:R:3:forces:R:3 energy=-6.898459586915374 pbc="F F F"
Pa       0.00000000       0.00000000       0.00000000       0.00000000       0.00000000       1.41005373
Pa       0.00000000       0.00000000       3.94242424       0.00000000       0.00000000      -1.41005373
2
Properties=species:S:1:pos:R:3:forces:R:3 energy=-6.8180962321707295 pbc="F F F"
Pa       0.00000000       0.00000000       0.00000000       0.00000000       0.00000000       1.32638693
Pa       0.00000000       0.00000000       4.00121212       0.00000000       0.00000000      -1.32638693
2
Properties=species:S:1:pos:R:3:forces:R:3 energy=-6.742235937086802 pbc="F F F"
Pa       0.00000000       0.00000000       0.00000000       0.00000000       0.00000000       1.25661445
Pa       0.00000000       0.00000000       4.06000000       0.00000000       0.00000000      -1.25661445
2
Properties=species:S:1:pos:R:3:forces:R:3 energy=-6.670102775549133 pbc="F F F"
Pa       0.00000000       0.00000000       0.00000000       0.00000000       0.00000000       1.19940293
Pa       0.00000000       0.00000000       4.11878788       0.00000000       0.00000000      -1.19940293
2
Properties=species:S:1:pos:R:3:forces:R:3 energy=-6.600993459082422 pbc="F F F"
Pa       0.00000000       0.00000000       0.00000000       0.00000000       0.00000000       1.15353715
Pa       0.00000000       0.00000000       4.17757576       0.00000000       0.00000000      -1.15353715
2
Properties=species:S:1:pos:R:3:forces:R:3 energy=-6.534262491542169 pbc="F F F"
Pa       0.00000000       0.00000000       0.00000000       0.00000000       0.00000000       1.11845839
Pa       0.00000000       0.00000000       4.23636364       0.00000000       0.00000000      -1.11845839
2
Properties=species:S:1:pos:R:3:forces:R:3 energy=-6.4692793614764 pbc="F F F"
Pa       0.00000000       0.00000000       0.00000000       0.00000000       0.00000000       1.09403551
Pa       0.00000000       0.00000000       4.29515152       0.00000000       0.00000000      -1.09403551
2
Properties=species:S:1:pos:R:3:forces:R:3 energy=-6.405429056976686 pbc="F F F"
Pa       0.00000000       0.00000000       0.00000000       0.00000000       0.00000000       1.07989776
Pa       0.00000000       0.00000000       4.35393939       0.00000000       0.00000000      -1.07989776
2
Properties=species:S:1:pos:R:3:forces:R:3 energy=-6.342132042153635 pbc="F F F"
Pa       0.00000000       0.00000000       0.00000000       0.00000000       0.00000000       1.07486796
Pa       0.00000000       0.00000000       4.41272727       0.00000000       0.00000000      -1.07486796
2
Properties=species:S:1:pos:R:3:forces:R:3 energy=-6.278913569587221 pbc="F F F"
Pa       0.00000000       0.00000000       0.00000000       0.00000000       0.00000000       1.07676554
Pa       0.00000000       0.00000000       4.47151515       0.00000000       0.00000000      -1.07676554
2
Properties=species:S:1:pos:R:3:forces:R:3 energy=-6.21545037869008 pbc="F F F"
Pa       0.00000000       0.00000000       0.00000000       0.00000000       0.00000000       1.08266211
Pa       0.00000000       0.00000000       4.53030303       0.00000000       0.00000000      -1.08266211
2
Properties=species:S:1:pos:R:3:forces:R:3 energy=-6.15160314597683 pbc="F F F"
Pa       0.00000000       0.00000000       0.00000000       0.00000000       0.00000000       1.08940220
Pa       0.00000000       0.00000000       4.58909091       0.00000000       0.00000000      -1.08940220
2
Properties=species:S:1:pos:R:3:forces:R:3 energy=-6.0874042330177875 pbc="F F F"
Pa       0.00000000       0.00000000       0.00000000       0.00000000       0.00000000       1.09416616
Pa       0.00000000       0.00000000       4.64787879       0.00000000       0.00000000      -1.09416616
2
Properties=species:S:1:pos:R:3:forces:R:3 energy=-6.023036566219825 pbc="F F F"
Pa       0.00000000       0.00000000       0.00000000       0.00000000       0.00000000       1.09478843
Pa       0.00000000       0.00000000       4.70666667       0.00000000       0.00000000      -1.09478843
2
Properties=species:S:1:pos:R:3:forces:R:3 energy=-5.958793791581348 pbc="F F F"
Pa       0.00000000       0.00000000       0.00000000       0.00000000       0.00000000       1.08980966
Pa       0.00000000       0.00000000       4.76545455       0.00000000       0.00000000      -1.08980966
2
Properties=species:S:1:pos:R:3:forces:R:3 energy=-5.895028223414318 pbc="F F F"
Pa       0.00000000       0.00000000       0.00000000       0.00000000       0.00000000       1.07821047
Pa       0.00000000       0.00000000       4.82424242       0.00000000       0.00000000      -1.07821047
2
Properties=species:S:1:pos:R:3:forces:R:3 energy=-5.832176205412657 pbc="F F F"
Pa       0.00000000       0.00000000       0.00000000       0.00000000       0.00000000       1.05890167
Pa       0.00000000       0.00000000       4.88303030       0.00000000       0.00000000      -1.05890167
2
Properties=species:S:1:pos:R:3:forces:R:3 energy=-5.770709365556158 pbc="F F F"
Pa       0.00000000       0.00000000       0.00000000       0.00000000       0.00000000       1.03043234
Pa       0.00000000       0.00000000       4.94181818       0.00000000       0.00000000      -1.03043234
2
Properties=species:S:1:pos:R:3:forces:R:3 energy=-5.711225812384941 pbc="F F F"
Pa       0.00000000       0.00000000       0.00000000       0.00000000       0.00000000       0.99151677
Pa       0.00000000       0.00000000       5.00060606       0.00000000       0.00000000      -0.99151677
2
Properties=species:S:1:pos:R:3:forces:R:3 energy=-5.654312316389452 pbc="F F F"
Pa       0.00000000       0.00000000       0.00000000       0.00000000       0.00000000       0.94344896
Pa       0.00000000       0.00000000       5.05939394       0.00000000       0.00000000      -0.94344896
2
Properties=species:S:1:pos:R:3:forces:R:3 energy=-5.600326281387556 pbc="F F F"
Pa       0.00000000       0.00000000       0.00000000       0.00000000       0.00000000       0.89424491
Pa       0.00000000       0.00000000       5.11818182       0.00000000       0.00000000      -0.89424491
2
Properties=species:S:1:pos:R:3:forces:R:3 energy=-5.548884594097882 pbc="F F F"
Pa       0.00000000       0.00000000       0.00000000       0.00000000       0.00000000       0.85975909
Pa       0.00000000       0.00000000       5.17696970       0.00000000       0.00000000      -0.85975909
2
Properties=species:S:1:pos:R:3:forces:R:3 energy=-5.498684854555008 pbc="F F F"
Pa       0.00000000       0.00000000       0.00000000       0.00000000       0.00000000       0.85285789
Pa       0.00000000       0.00000000       5.23575758       0.00000000       0.00000000      -0.85285789
2
Properties=species:S:1:pos:R:3:forces:R:3 energy=-5.448257584390617 pbc="F F F"
Pa       0.00000000       0.00000000       0.00000000       0.00000000       0.00000000       0.86293036
Pa       0.00000000       0.00000000       5.29454545       0.00000000       0.00000000      -0.86293036
2
Properties=species:S:1:pos:R:3:forces:R:3 energy=-5.397593347272756 pbc="F F F"
Pa       0.00000000       0.00000000       0.00000000       0.00000000       0.00000000       0.85443652
Pa       0.00000000       0.00000000       5.35333333       0.00000000       0.00000000      -0.85443652
2
Properties=species:S:1:pos:R:3:forces:R:3 energy=-5.348676120609598 pbc="F F F"
Pa       0.00000000       0.00000000       0.00000000       0.00000000       0.00000000       0.80284178
Pa       0.00000000       0.00000000       5.41212121       0.00000000       0.00000000      -0.80284178
2
Properties=species:S:1:pos:R:3:forces:R:3 energy=-5.303683165585141 pbc="F F F"
Pa       0.00000000       0.00000000       0.00000000       0.00000000       0.00000000       0.72779900
Pa       0.00000000       0.00000000       5.47090909       0.00000000       0.00000000      -0.72779900
2
Properties=species:S:1:pos:R:3:forces:R:3 energy=-5.262489248801882 pbc="F F F"
Pa       0.00000000       0.00000000       0.00000000       0.00000000       0.00000000       0.68350524
Pa       0.00000000       0.00000000       5.52969697       0.00000000       0.00000000      -0.68350524
2
Properties=species:S:1:pos:R:3:forces:R:3 energy=-5.221826843346202 pbc="F F F"
Pa       0.00000000       0.00000000       0.00000000       0.00000000       0.00000000       0.71306360
Pa       0.00000000       0.00000000       5.58848485       0.00000000       0.00000000      -0.71306360
2
Properties=species:S:1:pos:R:3:forces:R:3 energy=-5.1776048485045365 pbc="F F F"
Pa       0.00000000       0.00000000       0.00000000       0.00000000       0.00000000       0.79473668
Pa       0.00000000       0.00000000       5.64727273       0.00000000       0.00000000      -0.79473668
2
Properties=species:S:1:pos:R:3:forces:R:3 energy=-5.12917478846137 pbc="F F F"
Pa       0.00000000       0.00000000       0.00000000       0.00000000       0.00000000       0.83673024
Pa       0.00000000       0.00000000       5.70606061       0.00000000       0.00000000      -0.83673024
2
Properties=species:S:1:pos:R:3:forces:R:3 energy=-5.081637286304758 pbc="F F F"
Pa       0.00000000       0.00000000       0.00000000       0.00000000       0.00000000       0.75358951
Pa       0.00000000       0.00000000       5.76484848       0.00000000       0.00000000      -0.75358951
2
Properties=species:S:1:pos:R:3:forces:R:3 energy=-5.043009035085265 pbc="F F F"
Pa       0.00000000       0.00000000       0.00000000       0.00000000       0.00000000       0.54611558
Pa       0.00000000       0.00000000       5.82363636       0.00000000       0.00000000      -0.54611558
2
Properties=species:S:1:pos:R:3:forces:R:3 energy=-5.0183580572299835 pbc="F F F"
Pa       0.00000000       0.00000000       0.00000000       0.00000000       0.00000000       0.29749489
Pa       0.00000000       0.00000000       5.88242424       0.00000000       0.00000000      -0.29749489
2
Properties=species:S:1:pos:R:3:forces:R:3 energy=-5.006925635832862 pbc="F F F"
Pa       0.00000000       0.00000000       0.00000000       0.00000000       0.00000000       0.10561021
Pa       0.00000000       0.00000000       5.94121212       0.00000000       0.00000000      -0.10561021
2
Properties=species:S:1:pos:R:3:forces:R:3 energy=-5.003518460576929 pbc="F F F"
Pa       0.00000000       0.00000000       0.00000000       0.00000000       0.00000000       0.03397926
Pa       0.00000000       0.00000000       6.00000000       0.00000000       0.00000000      -0.03397926
