2
Properties=species:S:1:pos:R:3:forces:R:3 energy=106882.39279957238 pbc="F F F"
Pa       0.00000000       0.00000000       0.00000000       0.00000000       0.00000000 -2759670.00000000
Pa       0.00000000       0.00000000       0.10000000       0.00000000       0.00000000 2759670.00000000
2
Properties=species:S:1:pos:R:3:forces:R:3 energy=28579.615455822375 pbc="F F F"
Pa       0.00000000       0.00000000       0.00000000       0.00000000       0.00000000 -551731.18750000
Pa       0.00000000       0.00000000       0.15959596       0.00000000       0.00000000  551731.18750000
2
Properties=species:S:1:pos:R:3:forces:R:3 energy=10051.732643322375 pbc="F F F"
Pa       0.00000000       0.00000000       0.00000000       0.00000000       0.00000000 -161632.26562500
Pa       0.00000000       0.00000000       0.21919192       0.00000000       0.00000000  161632.26562500
2
Properties=species:S:1:pos:R:3:forces:R:3 energy=4105.334694103625 pbc="F F F"
Pa       0.00000000       0.00000000       0.00000000       0.00000000       0.00000000  -57840.47265625
Pa       0.00000000       0.00000000       0.27878788       0.00000000       0.00000000   57840.47265625
2
Properties=species:S:1:pos:R:3:forces:R:3 energy=1858.7946550537968 pbc="F F F"
Pa       0.00000000       0.00000000       0.00000000       0.00000000       0.00000000  -23310.76367188
Pa       0.00000000       0.00000000       0.33838384       0.00000000       0.00000000   23310.76367188
2
Properties=species:S:1:pos:R:3:forces:R:3 energy=918.678261010828 pbc="F F F"
Pa       0.00000000       0.00000000       0.00000000       0.00000000       0.00000000  -10211.94921875
Pa       0.00000000       0.00000000       0.39797980       0.00000000       0.00000000   10211.94921875
2
Properties=species:S:1:pos:R:3:forces:R:3 energy=494.27613089654614 pbc="F F F"
Pa       0.00000000       0.00000000       0.00000000       0.00000000       0.00000000   -4782.71191406
Pa       0.00000000       0.00000000       0.45757576       0.00000000       0.00000000    4782.71191406
2
Properties=species:S:1:pos:R:3:forces:R:3 energy=290.3779680674205 pbc="F F F"
Pa       0.00000000       0.00000000       0.00000000       0.00000000       0.00000000   -2369.22070312
Pa       0.00000000       0.00000000       0.51717172       0.00000000       0.00000000    2369.22070312
2
Properties=species:S:1:pos:R:3:forces:R:3 energy=187.22515130763088 pbc="F F F"
Pa       0.00000000       0.00000000       0.00000000       0.00000000       0.00000000   -1227.80871582
Pa       0.00000000       0.00000000       0.57676768       0.00000000       0.00000000    1227.80871582
2
Properties=species:S:1:pos:R:3:forces:R:3 energy=132.95955686322287 pbc="F F F"
Pa       0.00000000       0.00000000       0.00000000       0.00000000       0.00000000    -655.91815186
Pa       0.00000000       0.00000000       0.63636364       0.00000000       0.00000000     655.91815186
2
Properties=species:S:1:pos:R:3:forces:R:3 energy=103.78907047638401 pbc="F F F"
Pa       0.00000000       0.00000000       0.00000000       0.00000000       0.00000000    -353.64657593
Pa       0.00000000       0.00000000       0.69595960       0.00000000       0.00000000     353.64657593
2
Properties=species:S:1:pos:R:3:forces:R:3 energy=88.16098066029787 pbc="F F F"
Pa       0.00000000       0.00000000       0.00000000       0.00000000       0.00000000    -186.82264709
Pa       0.00000000       0.00000000       0.75555556       0.00000000       0.00000000     186.82264709
2
Properties=species:S:1:pos:R:3:forces:R:3 energy=80.08345089245549 pbc="F F F"
Pa       0.00000000       0.00000000       0.00000000       0.00000000       0.00000000     -93.39058685
Pa       0.00000000       0.00000000       0.81515152       0.00000000       0.00000000      93.39058685
2
Properties=species:S:1:pos:R:3:forces:R:3 energy=76.1692131064506 pbc="F F F"
Pa       0.00000000       0.00000000       0.00000000       0.00000000       0.00000000     -43.68282318
Pa       0.00000000       0.00000000       0.87474747       0.00000000       0.00000000      43.68282318
2
Properties=species:S:1:pos:R:3:forces:R:3 energy=74.3336268246961 pbc="F F F"
Pa       0.00000000       0.00000000       0.00000000       0.00000000       0.00000000     -21.43948746
Pa       0.00000000       0.00000000       0.93434343       0.00000000       0.00000000      21.43948746
2
Properties=species:S:1:pos:R:3:forces:R:3 energy=73.30187367746697 pbc="F F F"
Pa       0.00000000       0.00000000       0.00000000       0.00000000       0.00000000     -15.01911449
Pa       0.00000000       0.00000000       0.99393939       0.00000000       0.00000000      15.01911449
2
Properties=species:S:1:pos:R:3:forces:R:3 energy=72.38709452123258 pbc="F F F"
Pa       0.00000000       0.00000000       0.00000000       0.00000000       0.00000000     -16.66800117
Pa       0.00000000       0.00000000       1.05353535       0.00000000       0.00000000      16.66800117
2
Properties=species:S:1:pos:R:3:forces:R:3 energy=71.20818590372436 pbc="F F F"
Pa       0.00000000       0.00000000       0.00000000       0.00000000       0.00000000     -23.79346085
Pa       0.00000000       0.00000000       1.11313131       0.00000000       0.00000000      23.79346085
2
Properties=species:S:1:pos:R:3:forces:R:3 energy=69.4387928951587 pbc="F F F"
Pa       0.00000000       0.00000000       0.00000000       0.00000000       0.00000000     -36.55535507
Pa       0.00000000       0.00000000       1.17272727       0.00000000       0.00000000      36.55535507
2
Properties=species:S:1:pos:R:3:forces:R:3 energy=66.73876660776823 pbc="F F F"
Pa       0.00000000       0.00000000       0.00000000       0.00000000       0.00000000     -54.92762756
Pa       0.00000000       0.00000000       1.23232323       0.00000000       0.00000000      54.92762756
2
Properties=species:S:1:pos:R:3:forces:R:3 energy=62.80698254482676 pbc="F F F"
Pa       0.00000000       0.00000000       0.00000000       0.00000000       0.00000000     -77.50202942
Pa       0.00000000       0.00000000       1.29191919       0.00000000       0.00000000      77.50202942
2
Properties=species:S:1:pos:R:3:forces:R:3 energy=57.481834922058525 pbc="F F F"
Pa       0.00000000       0.00000000       0.00000000       0.00000000       0.00000000    -101.01466370
Pa       0.00000000       0.00000000       1.35151515       0.00000000       0.00000000     101.01466370
2
Properties=species:S:1:pos:R:3:forces:R:3 energy=50.83006198216722 pbc="F F F"
Pa       0.00000000       0.00000000       0.00000000       0.00000000       0.00000000    -121.39113617
Pa       0.00000000       0.00000000       1.41111111       0.00000000       0.00000000     121.39113617
2
Properties=species:S:1:pos:R:3:forces:R:3 energy=43.13473723914485 pbc="F F F"
Pa       0.00000000       0.00000000       0.00000000       0.00000000       0.00000000    -135.70530701
Pa       0.00000000       0.00000000       1.47070707       0.00000000       0.00000000     135.70530701
2
Properties=species:S:1:pos:R:3:forces:R:3 energy=34.79723562392752 pbc="F F F"
Pa       0.00000000       0.00000000       0.00000000       0.00000000       0.00000000    -142.90638733
Pa       0.00000000       0.00000000       1.53030303       0.00000000       0.00000000     142.90638733
2
Properties=species:S:1:pos:R:3:forces:R:3 energy=26.241749691817 pbc="F F F"
Pa       0.00000000       0.00000000       0.00000000       0.00000000       0.00000000    -142.99145508
Pa       0.00000000       0.00000000       1.58989899       0.00000000       0.00000000     142.99145508
2
Properties=species:S:1:pos:R:3:forces:R:3 energy=17.922192329854095 pbc="F F F"
Pa       0.00000000       0.00000000       0.00000000       0.00000000       0.00000000    -134.52346802
Pa       0.00000000       0.00000000       1.64949495       0.00000000       0.00000000     134.52346802
2
Properties=species:S:1:pos:R:3:forces:R:3 energy=10.43035106636498 pbc="F F F"
Pa       0.00000000       0.00000000       0.00000000       0.00000000       0.00000000    -115.07644653
Pa       0.00000000       0.00000000       1.70909091       0.00000000       0.00000000     115.07644653
2
Properties=species:S:1:pos:R:3:forces:R:3 energy=4.36085632014173 pbc="F F F"
Pa       0.00000000       0.00000000       0.00000000       0.00000000       0.00000000     -88.09120941
Pa       0.00000000       0.00000000       1.76868687       0.00000000       0.00000000      88.09120941
2
Properties=species:S:1:pos:R:3:forces:R:3 energy=-0.10904749433109015 pbc="F F F"
Pa       0.00000000       0.00000000       0.00000000       0.00000000       0.00000000     -62.92678070
Pa       0.00000000       0.00000000       1.82828283       0.00000000       0.00000000      62.92678070
2
Properties=species:S:1:pos:R:3:forces:R:3 energy=-3.289729138367699 pbc="F F F"
Pa       0.00000000       0.00000000       0.00000000       0.00000000       0.00000000     -45.05278015
Pa       0.00000000       0.00000000       1.88787879       0.00000000       0.00000000      45.05278015
2
Properties=species:S:1:pos:R:3:forces:R:3 energy=-5.596888781509464 pbc="F F F"
Pa       0.00000000       0.00000000       0.00000000       0.00000000       0.00000000     -33.08705521
Pa       0.00000000       0.00000000       1.94747475       0.00000000       0.00000000      33.08705521
2
Properties=species:S:1:pos:R:3:forces:R:3 energy=-7.293489866122951 pbc="F F F"
Pa       0.00000000       0.00000000       0.00000000       0.00000000       0.00000000     -24.21541405
Pa       0.00000000       0.00000000       2.00707071       0.00000000       0.00000000      24.21541405
2
Properties=species:S:1:pos:R:3:forces:R:3 energy=-8.52035779852697 pbc="F F F"
Pa       0.00000000       0.00000000       0.00000000       0.00000000       0.00000000     -17.24536324
Pa       0.00000000       0.00000000       2.06666667       0.00000000       0.00000000      17.24536324
2
Properties=species:S:1:pos:R:3:forces:R:3 energy=-9.381299635252397 pbc="F F F"
Pa       0.00000000       0.00000000       0.00000000       0.00000000       0.00000000     -11.89234638
Pa       0.00000000       0.00000000       2.12626263       0.00000000       0.00000000      11.89234638
2
Properties=species:S:1:pos:R:3:forces:R:3 energy=-9.96283229213108 pbc="F F F"
Pa       0.00000000       0.00000000       0.00000000       0.00000000       0.00000000      -7.80111647
Pa       0.00000000       0.00000000       2.18585859       0.00000000       0.00000000       7.80111647
2
Properties=species:S:1:pos:R:3:forces:R:3 energy=-10.32985569857974 pbc="F F F"
Pa       0.00000000       0.00000000       0.00000000       0.00000000       0.00000000      -4.65830660
Pa       0.00000000       0.00000000       2.24545455       0.00000000       0.00000000       4.65830660
2
Properties=species:S:1:pos:R:3:forces:R:3 energy=-10.53345190814566 pbc="F F F"
Pa       0.00000000       0.00000000       0.00000000       0.00000000       0.00000000      -2.28854322
Pa       0.00000000       0.00000000       2.30505051       0.00000000       0.00000000       2.28854322
2
Properties=species:S:1:pos:R:3:forces:R:3 energy=-10.61452627773189 pbc="F F F"
Pa       0.00000000       0.00000000       0.00000000       0.00000000       0.00000000      -0.51944518
Pa       0.00000000       0.00000000       2.36464646       0.00000000       0.00000000       0.51944518
2
Properties=species:S:1:pos:R:3:forces:R:3 energy=-10.60467250088738 pbc="F F F"
Pa       0.00000000       0.00000000       0.00000000       0.00000000       0.00000000       0.77954316
Pa       0.00000000       0.00000000       2.42424242       0.00000000       0.00000000      -0.77954316
2
Properties=species:S:1:pos:R:3:forces:R:3 energy=-10.529257592165083 pbc="F F F"
Pa       0.00000000       0.00000000       0.00000000       0.00000000       0.00000000       1.69340932
Pa       0.00000000       0.00000000       2.48383838       0.00000000       0.00000000      -1.69340932
2
Properties=species:S:1:pos:R:3:forces:R:3 energy=-10.40898603971376 pbc="F F F"
Pa       0.00000000       0.00000000       0.00000000       0.00000000       0.00000000       2.29758978
Pa       0.00000000       0.00000000       2.54343434       0.00000000       0.00000000      -2.29758978
2
Properties=species:S:1:pos:R:3:forces:R:3 energy=-10.260036041321039 pbc="F F F"
Pa       0.00000000       0.00000000       0.00000000       0.00000000       0.00000000       2.66826105
Pa       0.00000000       0.00000000       2.60303030       0.00000000       0.00000000      -2.66826105
2
Properties=species:S:1:pos:R:3:forces:R:3 energy=-10.094187448827284 pbc="F F F"
Pa       0.00000000       0.00000000       0.00000000       0.00000000       0.00000000       2.87547255
Pa       0.00000000       0.00000000       2.66262626       0.00000000       0.00000000      -2.87547255
2
Properties=species:S:1:pos:R:3:forces:R:3 energy=-9.919405328108219 pbc="F F F"
Pa       0.00000000       0.00000000       0.00000000       0.00000000       0.00000000       2.97649240
Pa       0.00000000       0.00000000       2.72222222       0.00000000       0.00000000      -2.97649240
2
Properties=species:S:1:pos:R:3:forces:R:3 energy=-9.74065254027765 pbc="F F F"
Pa       0.00000000       0.00000000       0.00000000       0.00000000       0.00000000       3.01477981
Pa       0.00000000       0.00000000       2.78181818       0.00000000       0.00000000      -3.01477981
2
Properties=species:S:1:pos:R:3:forces:R:3 energy=-9.560676256901443 pbc="F F F"
Pa       0.00000000       0.00000000       0.00000000       0.00000000       0.00000000       3.02208853
Pa       0.00000000       0.00000000       2.84141414       0.00000000       0.00000000      -3.02208853
2
Properties=species:S:1:pos:R:3:forces:R:3 energy=-9.380625570159522 pbc="F F F"
Pa       0.00000000       0.00000000       0.00000000       0.00000000       0.00000000       3.01992130
Pa       0.00000000       0.00000000       2.90101010       0.00000000       0.00000000      -3.01992130
2
Properties=species:S:1:pos:R:3:forces:R:3 energy=-9.200686019047446 pbc="F F F"
Pa       0.00000000       0.00000000       0.00000000       0.00000000       0.00000000       3.01934981
Pa       0.00000000       0.00000000       2.96060606       0.00000000       0.00000000      -3.01934981
2
Properties=species:S:1:pos:R:3:forces:R:3 energy=-9.020696794057168 pbc="F F F"
Pa       0.00000000       0.00000000       0.00000000       0.00000000       0.00000000       3.02079153
Pa       0.00000000       0.00000000       3.02020202       0.00000000       0.00000000      -3.02079153
2
Properties=species:S:1:pos:R:3:forces:R:3 energy=-8.840769034916276 pbc="F F F"
Pa       0.00000000       0.00000000       0.00000000       0.00000000       0.00000000       3.01513433
Pa       0.00000000       0.00000000       3.07979798       0.00000000       0.00000000      -3.01513433
2
Properties=species:S:1:pos:R:3:forces:R:3 energy=-8.661760316902472 pbc="F F F"
Pa       0.00000000       0.00000000       0.00000000       0.00000000       0.00000000       2.98717904
Pa       0.00000000       0.00000000       3.13939394       0.00000000       0.00000000      -2.98717904
2
Properties=species:S:1:pos:R:3:forces:R:3 energy=-8.485456153074605 pbc="F F F"
Pa       0.00000000       0.00000000       0.00000000       0.00000000       0.00000000       2.92255187
Pa       0.00000000       0.00000000       3.19898990       0.00000000       0.00000000      -2.92255187
2
Properties=species:S:1:pos:R:3:forces:R:3 energy=-8.314253070288705 pbc="F F F"
Pa       0.00000000       0.00000000       0.00000000       0.00000000       0.00000000       2.81629419
Pa       0.00000000       0.00000000       3.25858586       0.00000000       0.00000000      -2.81629419
2
Properties=species:S:1:pos:R:3:forces:R:3 energy=-8.150428462138986 pbc="F F F"
Pa       0.00000000       0.00000000       0.00000000       0.00000000       0.00000000       2.67758417
Pa       0.00000000       0.00000000       3.31818182       0.00000000       0.00000000      -2.67758417
2
Properties=species:S:1:pos:R:3:forces:R:3 energy=-7.99536404463851 pbc="F F F"
Pa       0.00000000       0.00000000       0.00000000       0.00000000       0.00000000       2.52588940
Pa       0.00000000       0.00000000       3.37777778       0.00000000       0.00000000      -2.52588940
2
Properties=species:S:1:pos:R:3:forces:R:3 energy=-7.849231983327503 pbc="F F F"
Pa       0.00000000       0.00000000       0.00000000       0.00000000       0.00000000       2.38048506
Pa       0.00000000       0.00000000       3.43737374       0.00000000       0.00000000      -2.38048506
2
Properties=species:S:1:pos:R:3:forces:R:3 energy=-7.7113033989152235 pbc="F F F"
Pa       0.00000000       0.00000000       0.00000000       0.00000000       0.00000000       2.25106812
Pa       0.00000000       0.00000000       3.49696970       0.00000000       0.00000000      -2.25106812
2
Properties=species:S:1:pos:R:3:forces:R:3 energy=-7.580638383989948 pbc="F F F"
Pa       0.00000000       0.00000000       0.00000000       0.00000000       0.00000000       2.13567281
Pa       0.00000000       0.00000000       3.55656566       0.00000000       0.00000000      -2.13567281
2
Properties=species:S:1:pos:R:3:forces:R:3 energy=-7.456640818059725 pbc="F F F"
Pa       0.00000000       0.00000000       0.00000000       0.00000000       0.00000000       2.02573872
Pa       0.00000000       0.00000000       3.61616162       0.00000000       0.00000000      -2.02573872
2
Properties=species:S:1:pos:R:3:forces:R:3 energy=-7.339239000136321 pbc="F F F"
Pa       0.00000000       0.00000000       0.00000000       0.00000000       0.00000000       1.91339242
Pa       0.00000000       0.00000000       3.67575758       0.00000000       0.00000000      -1.91339242
2
Properties=species:S:1:pos:R:3:forces:R:3 energy=-7.228686006021391 pbc="F F F"
Pa       0.00000000       0.00000000       0.00000000       0.00000000       0.00000000       1.79596257
Pa       0.00000000       0.00000000       3.73535354       0.00000000       0.00000000      -1.79596257
2
Properties=species:S:1:pos:R:3:forces:R:3 energy=-7.125218534326461 pbc="F F F"
Pa       0.00000000       0.00000000       0.00000000       0.00000000       0.00000000       1.67641354
Pa       0.00000000       0.00000000       3.79494949       0.00000000       0.00000000      -1.67641354
2
Properties=species:S:1:pos:R:3:forces:R:3 energy=-7.0287895908965 pbc="F F F"
Pa       0.00000000       0.00000000       0.00000000       0.00000000       0.00000000       1.56087065
Pa       0.00000000       0.00000000       3.85454545       0.00000000       0.00000000      -1.56087065
2
Properties=species:S:1:pos:R:3:forces:R:3 energy=-6.938973522187715 pbc="F F F"
Pa       0.00000000       0.00000000       0.00000000       0.00000000       0.00000000       1.45540261
Pa       0.00000000       0.00000000       3.91414141       0.00000000       0.00000000      -1.45540261
2
Properties=species:S:1:pos:R:3:forces:R:3 energy=-6.855042836735166 pbc="F F F"
Pa       0.00000000       0.00000000       0.00000000       0.00000000       0.00000000       1.36370111
Pa       0.00000000       0.00000000       3.97373737       0.00000000       0.00000000      -1.36370111
2
Properties=species:S:1:pos:R:3:forces:R:3 energy=-6.776139879201012 pbc="F F F"
Pa       0.00000000       0.00000000       0.00000000       0.00000000       0.00000000       1.28661835
Pa       0.00000000       0.00000000       4.03333333       0.00000000       0.00000000      -1.28661835
2
Properties=species:S:1:pos:R:3:forces:R:3 energy=-6.701417598706492 pbc="F F F"
Pa       0.00000000       0.00000000       0.00000000       0.00000000       0.00000000       1.22311234
Pa       0.00000000       0.00000000       4.09292929       0.00000000       0.00000000      -1.22311234
2
Properties=species:S:1:pos:R:3:forces:R:3 energy=-6.630113382563712 pbc="F F F"
Pa       0.00000000       0.00000000       0.00000000       0.00000000       0.00000000       1.17174494
Pa       0.00000000       0.00000000       4.15252525       0.00000000       0.00000000      -1.17174494
2
Properties=species:S:1:pos:R:3:forces:R:3 energy=-6.561533434691023 pbc="F F F"
Pa       0.00000000       0.00000000       0.00000000       0.00000000       0.00000000       1.13162947
Pa       0.00000000       0.00000000       4.21212121       0.00000000       0.00000000      -1.13162947
2
Properties=species:S:1:pos:R:3:forces:R:3 energy=-6.495014647647294 pbc="F F F"
Pa       0.00000000       0.00000000       0.00000000       0.00000000       0.00000000       1.10250473
Pa       0.00000000       0.00000000       4.27171717       0.00000000       0.00000000      -1.10250473
2
Properties=species:S:1:pos:R:3:forces:R:3 energy=-6.429908409175474 pbc="F F F"
Pa       0.00000000       0.00000000       0.00000000       0.00000000       0.00000000       1.08417392
Pa       0.00000000       0.00000000       4.33131313       0.00000000       0.00000000      -1.08417392
2
Properties=species:S:1:pos:R:3:forces:R:3 energy=-6.3655912193329485 pbc="F F F"
Pa       0.00000000       0.00000000       0.00000000       0.00000000       0.00000000       1.07578719
Pa       0.00000000       0.00000000       4.39090909       0.00000000       0.00000000      -1.07578719
2
Properties=species:S:1:pos:R:3:forces:R:3 energy=-6.301521803244578 pbc="F F F"
Pa       0.00000000       0.00000000       0.00000000       0.00000000       0.00000000       1.07546329
Pa       0.00000000       0.00000000       4.45050505       0.00000000       0.00000000      -1.07546329
2
Properties=species:S:1:pos:R:3:forces:R:3 energy=-6.237300486000441 pbc="F F F"
Pa       0.00000000       0.00000000       0.00000000       0.00000000       0.00000000       1.08037984
Pa       0.00000000       0.00000000       4.51010101       0.00000000       0.00000000      -1.08037984
2
Properties=species:S:1:pos:R:3:forces:R:3 energy=-6.1727090695790805 pbc="F F F"
Pa       0.00000000       0.00000000       0.00000000       0.00000000       0.00000000       1.08727121
Pa       0.00000000       0.00000000       4.56969697       0.00000000       0.00000000      -1.08727121
2
Properties=species:S:1:pos:R:3:forces:R:3 energy=-6.107728239739686 pbc="F F F"
Pa       0.00000000       0.00000000       0.00000000       0.00000000       0.00000000       1.09301877
Pa       0.00000000       0.00000000       4.62929293       0.00000000       0.00000000      -1.09301877
2
Properties=species:S:1:pos:R:3:forces:R:3 energy=-6.042504581894797 pbc="F F F"
Pa       0.00000000       0.00000000       0.00000000       0.00000000       0.00000000       1.09513569
Pa       0.00000000       0.00000000       4.68888889       0.00000000       0.00000000      -1.09513569
2
Properties=species:S:1:pos:R:3:forces:R:3 energy=-5.977304435611918 pbc="F F F"
Pa       0.00000000       0.00000000       0.00000000       0.00000000       0.00000000       1.09188771
Pa       0.00000000       0.00000000       4.74848485       0.00000000       0.00000000      -1.09188771
2
Properties=species:S:1:pos:R:3:forces:R:3 energy=-5.9124904662363145 pbc="F F F"
Pa       0.00000000       0.00000000       0.00000000       0.00000000       0.00000000       1.08211756
Pa       0.00000000       0.00000000       4.80808081       0.00000000       0.00000000      -1.08211756
2
Properties=species:S:1:pos:R:3:forces:R:3 energy=-5.848475080569334 pbc="F F F"
Pa       0.00000000       0.00000000       0.00000000       0.00000000       0.00000000       1.06476259
Pa       0.00000000       0.00000000       4.86767677       0.00000000       0.00000000      -1.06476259
2
Properties=species:S:1:pos:R:3:forces:R:3 energy=-5.78575517262451 pbc="F F F"
Pa       0.00000000       0.00000000       0.00000000       0.00000000       0.00000000       1.03842056
Pa       0.00000000       0.00000000       4.92727273       0.00000000       0.00000000      -1.03842056
2
Properties=species:S:1:pos:R:3:forces:R:3 energy=-5.7249130836375235 pbc="F F F"
Pa       0.00000000       0.00000000       0.00000000       0.00000000       0.00000000       1.00155580
Pa       0.00000000       0.00000000       4.98686869       0.00000000       0.00000000      -1.00155580
2
Properties=species:S:1:pos:R:3:forces:R:3 energy=-5.666589949870494 pbc="F F F"
Pa       0.00000000       0.00000000       0.00000000       0.00000000       0.00000000       0.95453650
Pa       0.00000000       0.00000000       5.04646465       0.00000000       0.00000000      -0.95453650
2
Properties=species:S:1:pos:R:3:forces:R:3 energy=-5.611225705983526 pbc="F F F"
Pa       0.00000000       0.00000000       0.00000000       0.00000000       0.00000000       0.90378487
Pa       0.00000000       0.00000000       5.10606061       0.00000000       0.00000000      -0.90378487
2
Properties=species:S:1:pos:R:3:forces:R:3 energy=-5.558631895961747 pbc="F F F"
Pa       0.00000000       0.00000000       0.00000000       0.00000000       0.00000000       0.86444825
Pa       0.00000000       0.00000000       5.16565657       0.00000000       0.00000000      -0.86444825
2
Properties=species:S:1:pos:R:3:forces:R:3 energy=-5.507634490405599 pbc="F F F"
Pa       0.00000000       0.00000000       0.00000000       0.00000000       0.00000000       0.85213232
Pa       0.00000000       0.00000000       5.22525253       0.00000000       0.00000000      -0.85213232
2
Properties=species:S:1:pos:R:3:forces:R:3 energy=-5.456615891988608 pbc="F F F"
Pa       0.00000000       0.00000000       0.00000000       0.00000000       0.00000000       0.86148596
Pa       0.00000000       0.00000000       5.28484848       0.00000000       0.00000000      -0.86148596
2
Properties=species:S:1:pos:R:3:forces:R:3 energy=-5.405202048679543 pbc="F F F"
Pa       0.00000000       0.00000000       0.00000000       0.00000000       0.00000000       0.85831606
Pa       0.00000000       0.00000000       5.34444444       0.00000000       0.00000000      -0.85831606
2
Properties=species:S:1:pos:R:3:forces:R:3 energy=-5.355192115138526 pbc="F F F"
Pa       0.00000000       0.00000000       0.00000000       0.00000000       0.00000000       0.81227624
Pa       0.00000000       0.00000000       5.40404040       0.00000000       0.00000000      -0.81227624
2
Properties=species:S:1:pos:R:3:forces:R:3 energy=-5.308992513153839 pbc="F F F"
Pa       0.00000000       0.00000000       0.00000000       0.00000000       0.00000000       0.73666906
Pa       0.00000000       0.00000000       5.46363636       0.00000000       0.00000000      -0.73666906
2
Properties=species:S:1:pos:R:3:forces:R:3 energy=-5.266921702303948 pbc="F F F"
Pa       0.00000000       0.00000000       0.00000000       0.00000000       0.00000000       0.68511993
Pa       0.00000000       0.00000000       5.52323232       0.00000000       0.00000000      -0.68511993
2
Properties=species:S:1:pos:R:3:forces:R:3 energy=-5.225845007844854 pbc="F F F"
Pa       0.00000000       0.00000000       0.00000000       0.00000000       0.00000000       0.70692223
Pa       0.00000000       0.00000000       5.58282828       0.00000000       0.00000000      -0.70692223
2
Properties=species:S:1:pos:R:3:forces:R:3 energy=-5.181423601823919 pbc="F F F"
Pa       0.00000000       0.00000000       0.00000000       0.00000000       0.00000000       0.78805435
Pa       0.00000000       0.00000000       5.64242424       0.00000000       0.00000000      -0.78805435
2
Properties=species:S:1:pos:R:3:forces:R:3 energy=-5.132505785168781 pbc="F F F"
Pa       0.00000000       0.00000000       0.00000000       0.00000000       0.00000000       0.83761472
Pa       0.00000000       0.00000000       5.70202020       0.00000000       0.00000000      -0.83761472
2
Properties=species:S:1:pos:R:3:forces:R:3 energy=-5.084186254517143 pbc="F F F"
Pa       0.00000000       0.00000000       0.00000000       0.00000000       0.00000000       0.76152152
Pa       0.00000000       0.00000000       5.76161616       0.00000000       0.00000000      -0.76152152
2
Properties=species:S:1:pos:R:3:forces:R:3 energy=-5.044397511818829 pbc="F F F"
Pa       0.00000000       0.00000000       0.00000000       0.00000000       0.00000000       0.55596507
Pa       0.00000000       0.00000000       5.82121212       0.00000000       0.00000000      -0.55596507
2
Properties=species:S:1:pos:R:3:forces:R:3 energy=-5.018898356488226 pbc="F F F"
Pa       0.00000000       0.00000000       0.00000000       0.00000000       0.00000000       0.30392870
Pa       0.00000000       0.00000000       5.88080808       0.00000000       0.00000000      -0.30392870
2
Properties=species:S:1:pos:R:3:forces:R:3 energy=-5.006995563036706 pbc="F F F"
Pa       0.00000000       0.00000000       0.00000000       0.00000000       0.00000000       0.10783620
Pa       0.00000000       0.00000000       5.94040404       0.00000000       0.00000000      -0.10783620
2
Properties=species:S:1:pos:R:3:forces:R:3 energy=-5.003518460576929 pbc="F F F"
Pa       0.00000000       0.00000000       0.00000000       0.00000000       0.00000000       0.03397926
Pa       0.00000000       0.00000000       6.00000000       0.00000000       0.00000000      -0.03397926
