2
Properties=species:S:1:pos:R:3:forces:R:3 energy=17006.76711957181 pbc="F F F"
Pb       0.00000000       0.00000000       0.00000000       0.00000000       0.00000000 -301831.62500000
Pb       0.00000000       0.00000000       0.18000000       0.00000000       0.00000000  301831.62500000
2
Properties=species:S:1:pos:R:3:forces:R:3 energy=6512.5786430093085 pbc="F F F"
Pb       0.00000000       0.00000000       0.00000000       0.00000000       0.00000000  -98557.60937500
Pb       0.00000000       0.00000000       0.23878788       0.00000000       0.00000000   98557.60937500
2
Properties=species:S:1:pos:R:3:forces:R:3 energy=2821.716582462434 pbc="F F F"
Pb       0.00000000       0.00000000       0.00000000       0.00000000       0.00000000  -37832.86718750
Pb       0.00000000       0.00000000       0.29757576       0.00000000       0.00000000   37832.86718750
2
Properties=species:S:1:pos:R:3:forces:R:3 energy=1337.927031681184 pbc="F F F"
Pb       0.00000000       0.00000000       0.00000000       0.00000000       0.00000000  -16065.10742188
Pb       0.00000000       0.00000000       0.35636364       0.00000000       0.00000000   16065.10742188
2
Properties=species:S:1:pos:R:3:forces:R:3 energy=686.6491386179455 pbc="F F F"
Pb       0.00000000       0.00000000       0.00000000       0.00000000       0.00000000   -7338.02734375
Pb       0.00000000       0.00000000       0.41515152       0.00000000       0.00000000    7338.02734375
2
Properties=species:S:1:pos:R:3:forces:R:3 energy=381.21408003053114 pbc="F F F"
Pb       0.00000000       0.00000000       0.00000000       0.00000000       0.00000000   -3551.80566406
Pb       0.00000000       0.00000000       0.47393939       0.00000000       0.00000000    3551.80566406
2
Properties=species:S:1:pos:R:3:forces:R:3 energy=230.18913192308523 pbc="F F F"
Pb       0.00000000       0.00000000       0.00000000       0.00000000       0.00000000   -1800.03552246
Pb       0.00000000       0.00000000       0.53272727       0.00000000       0.00000000    1800.03552246
2
Properties=species:S:1:pos:R:3:forces:R:3 energy=152.43012925337746 pbc="F F F"
Pb       0.00000000       0.00000000       0.00000000       0.00000000       0.00000000    -942.96887207
Pb       0.00000000       0.00000000       0.59151515       0.00000000       0.00000000     942.96887207
2
Properties=species:S:1:pos:R:3:forces:R:3 energy=111.26455616810632 pbc="F F F"
Pb       0.00000000       0.00000000       0.00000000       0.00000000       0.00000000    -504.88540649
Pb       0.00000000       0.00000000       0.65030303       0.00000000       0.00000000     504.88540649
2
Properties=species:S:1:pos:R:3:forces:R:3 energy=89.08213739554928 pbc="F F F"
Pb       0.00000000       0.00000000       0.00000000       0.00000000       0.00000000    -273.41574097
Pb       0.00000000       0.00000000       0.70909091       0.00000000       0.00000000     273.41574097
2
Properties=species:S:1:pos:R:3:forces:R:3 energy=77.1361154378856 pbc="F F F"
Pb       0.00000000       0.00000000       0.00000000       0.00000000       0.00000000    -144.86090088
Pb       0.00000000       0.00000000       0.76787879       0.00000000       0.00000000     144.86090088
2
Properties=species:S:1:pos:R:3:forces:R:3 energy=70.99706220720064 pbc="F F F"
Pb       0.00000000       0.00000000       0.00000000       0.00000000       0.00000000     -70.96510315
Pb       0.00000000       0.00000000       0.82666667       0.00000000       0.00000000      70.96510315
2
Properties=species:S:1:pos:R:3:forces:R:3 energy=68.10897795713848 pbc="F F F"
Pb       0.00000000       0.00000000       0.00000000       0.00000000       0.00000000     -32.24041748
Pb       0.00000000       0.00000000       0.88545455       0.00000000       0.00000000      32.24041748
2
Properties=species:S:1:pos:R:3:forces:R:3 energy=66.69756308512402 pbc="F F F"
Pb       0.00000000       0.00000000       0.00000000       0.00000000       0.00000000     -19.51761627
Pb       0.00000000       0.00000000       0.94424242       0.00000000       0.00000000      19.51761627
2
Properties=species:S:1:pos:R:3:forces:R:3 energy=65.44982932891419 pbc="F F F"
Pb       0.00000000       0.00000000       0.00000000       0.00000000       0.00000000     -25.35389328
Pb       0.00000000       0.00000000       1.00303030       0.00000000       0.00000000      25.35389328
2
Properties=species:S:1:pos:R:3:forces:R:3 energy=63.50555865942024 pbc="F F F"
Pb       0.00000000       0.00000000       0.00000000       0.00000000       0.00000000     -42.02200317
Pb       0.00000000       0.00000000       1.06181818       0.00000000       0.00000000      42.02200317
2
Properties=species:S:1:pos:R:3:forces:R:3 energy=60.425580280421485 pbc="F F F"
Pb       0.00000000       0.00000000       0.00000000       0.00000000       0.00000000     -62.93716812
Pb       0.00000000       0.00000000       1.12060606       0.00000000       0.00000000      62.93716812
2
Properties=species:S:1:pos:R:3:forces:R:3 energy=56.15263561130349 pbc="F F F"
Pb       0.00000000       0.00000000       0.00000000       0.00000000       0.00000000     -81.44397736
Pb       0.00000000       0.00000000       1.17939394       0.00000000       0.00000000      81.44397736
2
Properties=species:S:1:pos:R:3:forces:R:3 energy=51.02595046545873 pbc="F F F"
Pb       0.00000000       0.00000000       0.00000000       0.00000000       0.00000000     -91.11950684
Pb       0.00000000       0.00000000       1.23818182       0.00000000       0.00000000      91.11950684
2
Properties=species:S:1:pos:R:3:forces:R:3 energy=45.648502643090076 pbc="F F F"
Pb       0.00000000       0.00000000       0.00000000       0.00000000       0.00000000     -90.41736603
Pb       0.00000000       0.00000000       1.29696970       0.00000000       0.00000000      90.41736603
2
Properties=species:S:1:pos:R:3:forces:R:3 energy=40.49468033011258 pbc="F F F"
Pb       0.00000000       0.00000000       0.00000000       0.00000000       0.00000000     -84.56932831
Pb       0.00000000       0.00000000       1.35575758       0.00000000       0.00000000      84.56932831
2
Properties=species:S:1:pos:R:3:forces:R:3 energy=35.69643014726773 pbc="F F F"
Pb       0.00000000       0.00000000       0.00000000       0.00000000       0.00000000     -79.17612457
Pb       0.00000000       0.00000000       1.41454545       0.00000000       0.00000000      79.17612457
2
Properties=species:S:1:pos:R:3:forces:R:3 energy=31.096556138332684 pbc="F F F"
Pb       0.00000000       0.00000000       0.00000000       0.00000000       0.00000000     -77.99061584
Pb       0.00000000       0.00000000       1.47333333       0.00000000       0.00000000      77.99061584
2
Properties=species:S:1:pos:R:3:forces:R:3 energy=26.516324556819388 pbc="F F F"
Pb       0.00000000       0.00000000       0.00000000       0.00000000       0.00000000     -77.23135376
Pb       0.00000000       0.00000000       1.53212121       0.00000000       0.00000000      77.23135376
2
Properties=species:S:1:pos:R:3:forces:R:3 energy=22.126237219418183 pbc="F F F"
Pb       0.00000000       0.00000000       0.00000000       0.00000000       0.00000000     -71.23899078
Pb       0.00000000       0.00000000       1.59090909       0.00000000       0.00000000      71.23899078
2
Properties=species:S:1:pos:R:3:forces:R:3 energy=18.195167461227978 pbc="F F F"
Pb       0.00000000       0.00000000       0.00000000       0.00000000       0.00000000     -62.45955276
Pb       0.00000000       0.00000000       1.64969697       0.00000000       0.00000000      62.45955276
2
Properties=species:S:1:pos:R:3:forces:R:3 energy=14.758342230861084 pbc="F F F"
Pb       0.00000000       0.00000000       0.00000000       0.00000000       0.00000000     -54.76673508
Pb       0.00000000       0.00000000       1.70848485       0.00000000       0.00000000      54.76673508
2
Properties=species:S:1:pos:R:3:forces:R:3 energy=11.725147355189657 pbc="F F F"
Pb       0.00000000       0.00000000       0.00000000       0.00000000       0.00000000     -48.61048508
Pb       0.00000000       0.00000000       1.76727273       0.00000000       0.00000000      48.61048508
2
Properties=species:S:1:pos:R:3:forces:R:3 energy=9.029871990188399 pbc="F F F"
Pb       0.00000000       0.00000000       0.00000000       0.00000000       0.00000000     -43.13697052
Pb       0.00000000       0.00000000       1.82606061       0.00000000       0.00000000      43.13697052
2
Properties=species:S:1:pos:R:3:forces:R:3 energy=6.650722000438162 pbc="F F F"
Pb       0.00000000       0.00000000       0.00000000       0.00000000       0.00000000     -37.81014633
Pb       0.00000000       0.00000000       1.88484848       0.00000000       0.00000000      37.81014633
2
Properties=species:S:1:pos:R:3:forces:R:3 energy=4.583096129109839 pbc="F F F"
Pb       0.00000000       0.00000000       0.00000000       0.00000000       0.00000000     -32.55339050
Pb       0.00000000       0.00000000       1.94363636       0.00000000       0.00000000      32.55339050
2
Properties=species:S:1:pos:R:3:forces:R:3 energy=2.8186845247120362 pbc="F F F"
Pb       0.00000000       0.00000000       0.00000000       0.00000000       0.00000000     -27.52882195
Pb       0.00000000       0.00000000       2.00242424       0.00000000       0.00000000      27.52882195
2
Properties=species:S:1:pos:R:3:forces:R:3 energy=1.3382809167752634 pbc="F F F"
Pb       0.00000000       0.00000000       0.00000000       0.00000000       0.00000000     -22.91350746
Pb       0.00000000       0.00000000       2.06121212       0.00000000       0.00000000      22.91350746
2
Properties=species:S:1:pos:R:3:forces:R:3 energy=0.1150383534301371 pbc="F F F"
Pb       0.00000000       0.00000000       0.00000000       0.00000000       0.00000000     -18.78406906
Pb       0.00000000       0.00000000       2.12000000       0.00000000       0.00000000      18.78406906
2
Properties=species:S:1:pos:R:3:forces:R:3 energy=-0.8797096555124959 pbc="F F F"
Pb       0.00000000       0.00000000       0.00000000       0.00000000       0.00000000     -15.13613510
Pb       0.00000000       0.00000000       2.17878788       0.00000000       0.00000000      15.13613510
2
Properties=species:S:1:pos:R:3:forces:R:3 energy=-1.67366805494445 pbc="F F F"
Pb       0.00000000       0.00000000       0.00000000       0.00000000       0.00000000     -11.95125389
Pb       0.00000000       0.00000000       2.23757576       0.00000000       0.00000000      11.95125389
2
Properties=species:S:1:pos:R:3:forces:R:3 energy=-2.2939012338952733 pbc="F F F"
Pb       0.00000000       0.00000000       0.00000000       0.00000000       0.00000000      -9.22648144
Pb       0.00000000       0.00000000       2.29636364       0.00000000       0.00000000       9.22648144
2
Properties=species:S:1:pos:R:3:forces:R:3 energy=-2.7674999456544374 pbc="F F F"
Pb       0.00000000       0.00000000       0.00000000       0.00000000       0.00000000      -6.96152306
Pb       0.00000000       0.00000000       2.35515152       0.00000000       0.00000000       6.96152306
2
Properties=species:S:1:pos:R:3:forces:R:3 energy=-3.121038005098565 pbc="F F F"
Pb       0.00000000       0.00000000       0.00000000       0.00000000       0.00000000      -5.13590050
Pb       0.00000000       0.00000000       2.41393939       0.00000000       0.00000000       5.13590050
2
Properties=species:S:1:pos:R:3:forces:R:3 energy=-3.3790107477846494 pbc="F F F"
Pb       0.00000000       0.00000000       0.00000000       0.00000000       0.00000000      -3.69993901
Pb       0.00000000       0.00000000       2.47272727       0.00000000       0.00000000       3.69993901
2
Properties=species:S:1:pos:R:3:forces:R:3 energy=-3.562315814092727 pbc="F F F"
Pb       0.00000000       0.00000000       0.00000000       0.00000000       0.00000000      -2.58311868
Pb       0.00000000       0.00000000       2.53151515       0.00000000       0.00000000       2.58311868
2
Properties=species:S:1:pos:R:3:forces:R:3 energy=-3.6875336684784186 pbc="F F F"
Pb       0.00000000       0.00000000       0.00000000       0.00000000       0.00000000      -1.71231580
Pb       0.00000000       0.00000000       2.59030303       0.00000000       0.00000000       1.71231580
2
Properties=species:S:1:pos:R:3:forces:R:3 energy=-3.7672810118348847 pbc="F F F"
Pb       0.00000000       0.00000000       0.00000000       0.00000000       0.00000000      -1.02787101
Pb       0.00000000       0.00000000       2.64909091       0.00000000       0.00000000       1.02787101
2
Properties=species:S:1:pos:R:3:forces:R:3 energy=-3.8112361817876796 pbc="F F F"
Pb       0.00000000       0.00000000       0.00000000       0.00000000       0.00000000      -0.48935765
Pb       0.00000000       0.00000000       2.70787879       0.00000000       0.00000000       0.48935765
2
Properties=species:S:1:pos:R:3:forces:R:3 energy=-3.8271625814526056 pbc="F F F"
Pb       0.00000000       0.00000000       0.00000000       0.00000000       0.00000000      -0.07067163
Pb       0.00000000       0.00000000       2.76666667       0.00000000       0.00000000       0.07067163
2
Properties=species:S:1:pos:R:3:forces:R:3 energy=-3.821487528067549 pbc="F F F"
Pb       0.00000000       0.00000000       0.00000000       0.00000000       0.00000000       0.24892680
Pb       0.00000000       0.00000000       2.82545455       0.00000000       0.00000000      -0.24892680
2
Properties=species:S:1:pos:R:3:forces:R:3 energy=-3.7994213347372305 pbc="F F F"
Pb       0.00000000       0.00000000       0.00000000       0.00000000       0.00000000       0.49066415
Pb       0.00000000       0.00000000       2.88424242       0.00000000       0.00000000      -0.49066415
2
Properties=species:S:1:pos:R:3:forces:R:3 energy=-3.764897826165668 pbc="F F F"
Pb       0.00000000       0.00000000       0.00000000       0.00000000       0.00000000       0.67617297
Pb       0.00000000       0.00000000       2.94303030       0.00000000       0.00000000      -0.67617297
2
Properties=species:S:1:pos:R:3:forces:R:3 energy=-3.720661321759848 pbc="F F F"
Pb       0.00000000       0.00000000       0.00000000       0.00000000       0.00000000       0.82360941
Pb       0.00000000       0.00000000       3.00181818       0.00000000       0.00000000      -0.82360941
2
Properties=species:S:1:pos:R:3:forces:R:3 energy=-3.66858660187458 pbc="F F F"
Pb       0.00000000       0.00000000       0.00000000       0.00000000       0.00000000       0.94394577
Pb       0.00000000       0.00000000       3.06060606       0.00000000       0.00000000      -0.94394577
2
Properties=species:S:1:pos:R:3:forces:R:3 energy=-3.610142110442478 pbc="F F F"
Pb       0.00000000       0.00000000       0.00000000       0.00000000       0.00000000       1.04030669
Pb       0.00000000       0.00000000       3.11939394       0.00000000       0.00000000      -1.04030669
2
Properties=species:S:1:pos:R:3:forces:R:3 energy=-3.5467829156702555 pbc="F F F"
Pb       0.00000000       0.00000000       0.00000000       0.00000000       0.00000000       1.11057997
Pb       0.00000000       0.00000000       3.17818182       0.00000000       0.00000000      -1.11057997
2
Properties=species:S:1:pos:R:3:forces:R:3 energy=-3.4801370188477336 pbc="F F F"
Pb       0.00000000       0.00000000       0.00000000       0.00000000       0.00000000       1.15179563
Pb       0.00000000       0.00000000       3.23696970       0.00000000       0.00000000      -1.15179563
2
Properties=species:S:1:pos:R:3:forces:R:3 energy=-3.4119296376182287 pbc="F F F"
Pb       0.00000000       0.00000000       0.00000000       0.00000000       0.00000000       1.16408539
Pb       0.00000000       0.00000000       3.29575758       0.00000000       0.00000000      -1.16408539
2
Properties=species:S:1:pos:R:3:forces:R:3 energy=-3.3437374108531337 pbc="F F F"
Pb       0.00000000       0.00000000       0.00000000       0.00000000       0.00000000       1.15258181
Pb       0.00000000       0.00000000       3.35454545       0.00000000       0.00000000      -1.15258181
2
Properties=species:S:1:pos:R:3:forces:R:3 energy=-3.2766958018058836 pbc="F F F"
Pb       0.00000000       0.00000000       0.00000000       0.00000000       0.00000000       1.12675190
Pb       0.00000000       0.00000000       3.41333333       0.00000000       0.00000000      -1.12675190
2
Properties=species:S:1:pos:R:3:forces:R:3 energy=-3.2113238283242262 pbc="F F F"
Pb       0.00000000       0.00000000       0.00000000       0.00000000       0.00000000       1.09751976
Pb       0.00000000       0.00000000       3.47212121       0.00000000       0.00000000      -1.09751976
2
Properties=species:S:1:pos:R:3:forces:R:3 energy=-3.1475517697708524 pbc="F F F"
Pb       0.00000000       0.00000000       0.00000000       0.00000000       0.00000000       1.07334149
Pb       0.00000000       0.00000000       3.53090909       0.00000000       0.00000000      -1.07334149
2
Properties=species:S:1:pos:R:3:forces:R:3 energy=-3.0849528790137892 pbc="F F F"
Pb       0.00000000       0.00000000       0.00000000       0.00000000       0.00000000       1.05777168
Pb       0.00000000       0.00000000       3.58969697       0.00000000       0.00000000      -1.05777168
2
Properties=species:S:1:pos:R:3:forces:R:3 energy=-3.0230282012189478 pbc="F F F"
Pb       0.00000000       0.00000000       0.00000000       0.00000000       0.00000000       1.05006027
Pb       0.00000000       0.00000000       3.64848485       0.00000000       0.00000000      -1.05006027
2
Properties=species:S:1:pos:R:3:forces:R:3 energy=-2.9613978629224276 pbc="F F F"
Pb       0.00000000       0.00000000       0.00000000       0.00000000       0.00000000       1.04713428
Pb       0.00000000       0.00000000       3.70727273       0.00000000       0.00000000      -1.04713428
2
Properties=species:S:1:pos:R:3:forces:R:3 energy=-2.8998898438604366 pbc="F F F"
Pb       0.00000000       0.00000000       0.00000000       0.00000000       0.00000000       1.04526532
Pb       0.00000000       0.00000000       3.76606061       0.00000000       0.00000000      -1.04526532
2
Properties=species:S:1:pos:R:3:forces:R:3 energy=-2.838545778014728 pbc="F F F"
Pb       0.00000000       0.00000000       0.00000000       0.00000000       0.00000000       1.04110312
Pb       0.00000000       0.00000000       3.82484848       0.00000000       0.00000000      -1.04110312
2
Properties=species:S:1:pos:R:3:forces:R:3 energy=-2.7775729928867814 pbc="F F F"
Pb       0.00000000       0.00000000       0.00000000       0.00000000       0.00000000       1.03226340
Pb       0.00000000       0.00000000       3.88363636       0.00000000       0.00000000      -1.03226340
2
Properties=species:S:1:pos:R:3:forces:R:3 energy=-2.7172933478656334 pbc="F F F"
Pb       0.00000000       0.00000000       0.00000000       0.00000000       0.00000000       1.01747394
Pb       0.00000000       0.00000000       3.94242424       0.00000000       0.00000000      -1.01747394
2
Properties=species:S:1:pos:R:3:forces:R:3 energy=-2.6580666952086385 pbc="F F F"
Pb       0.00000000       0.00000000       0.00000000       0.00000000       0.00000000       0.99643689
Pb       0.00000000       0.00000000       4.00121212       0.00000000       0.00000000      -0.99643689
2
Properties=species:S:1:pos:R:3:forces:R:3 energy=-2.6002523881285717 pbc="F F F"
Pb       0.00000000       0.00000000       0.00000000       0.00000000       0.00000000       0.96950471
Pb       0.00000000       0.00000000       4.06000000       0.00000000       0.00000000      -0.96950471
2
Properties=species:S:1:pos:R:3:forces:R:3 energy=-2.544178560155182 pbc="F F F"
Pb       0.00000000       0.00000000       0.00000000       0.00000000       0.00000000       0.93739736
Pb       0.00000000       0.00000000       4.11878788       0.00000000       0.00000000      -0.93739736
2
Properties=species:S:1:pos:R:3:forces:R:3 energy=-2.490121795207761 pbc="F F F"
Pb       0.00000000       0.00000000       0.00000000       0.00000000       0.00000000       0.90096802
Pb       0.00000000       0.00000000       4.17757576       0.00000000       0.00000000      -0.90096802
2
Properties=species:S:1:pos:R:3:forces:R:3 energy=-2.4383124273289263 pbc="F F F"
Pb       0.00000000       0.00000000       0.00000000       0.00000000       0.00000000       0.86110002
Pb       0.00000000       0.00000000       4.23636364       0.00000000       0.00000000      -0.86110002
2
Properties=species:S:1:pos:R:3:forces:R:3 energy=-2.3889256826873146 pbc="F F F"
Pb       0.00000000       0.00000000       0.00000000       0.00000000       0.00000000       0.81870323
Pb       0.00000000       0.00000000       4.29515152       0.00000000       0.00000000      -0.81870323
2
Properties=species:S:1:pos:R:3:forces:R:3 energy=-2.34208394489012 pbc="F F F"
Pb       0.00000000       0.00000000       0.00000000       0.00000000       0.00000000       0.77476633
Pb       0.00000000       0.00000000       4.35393939       0.00000000       0.00000000      -0.77476633
2
Properties=species:S:1:pos:R:3:forces:R:3 energy=-2.297841572221759 pbc="F F F"
Pb       0.00000000       0.00000000       0.00000000       0.00000000       0.00000000       0.73040962
Pb       0.00000000       0.00000000       4.41272727       0.00000000       0.00000000      -0.73040962
2
Properties=species:S:1:pos:R:3:forces:R:3 energy=-2.2561877705061937 pbc="F F F"
Pb       0.00000000       0.00000000       0.00000000       0.00000000       0.00000000       0.68693781
Pb       0.00000000       0.00000000       4.47151515       0.00000000       0.00000000      -0.68693781
2
Properties=species:S:1:pos:R:3:forces:R:3 energy=-2.2170277517035366 pbc="F F F"
Pb       0.00000000       0.00000000       0.00000000       0.00000000       0.00000000       0.64581567
Pb       0.00000000       0.00000000       4.53030303       0.00000000       0.00000000      -0.64581567
2
Properties=species:S:1:pos:R:3:forces:R:3 energy=-2.180179182973942 pbc="F F F"
Pb       0.00000000       0.00000000       0.00000000       0.00000000       0.00000000       0.60859632
Pb       0.00000000       0.00000000       4.58909091       0.00000000       0.00000000      -0.60859632
2
Properties=species:S:1:pos:R:3:forces:R:3 energy=-2.1453666103515268 pbc="F F F"
Pb       0.00000000       0.00000000       0.00000000       0.00000000       0.00000000       0.57677960
Pb       0.00000000       0.00000000       4.64787879       0.00000000       0.00000000      -0.57677960
2
Properties=species:S:1:pos:R:3:forces:R:3 energy=-2.11223337733742 pbc="F F F"
Pb       0.00000000       0.00000000       0.00000000       0.00000000       0.00000000       0.55157906
Pb       0.00000000       0.00000000       4.70666667       0.00000000       0.00000000      -0.55157906
2
Properties=species:S:1:pos:R:3:forces:R:3 energy=-2.0803718588778812 pbc="F F F"
Pb       0.00000000       0.00000000       0.00000000       0.00000000       0.00000000       0.53361422
Pb       0.00000000       0.00000000       4.76545455       0.00000000       0.00000000      -0.53361422
2
Properties=species:S:1:pos:R:3:forces:R:3 energy=-2.0493564811695557 pbc="F F F"
Pb       0.00000000       0.00000000       0.00000000       0.00000000       0.00000000       0.52250701
Pb       0.00000000       0.00000000       4.82424242       0.00000000       0.00000000      -0.52250701
2
Properties=species:S:1:pos:R:3:forces:R:3 energy=-2.018838580575732 pbc="F F F"
Pb       0.00000000       0.00000000       0.00000000       0.00000000       0.00000000       0.51645339
Pb       0.00000000       0.00000000       4.88303030       0.00000000       0.00000000      -0.51645339
2
Properties=species:S:1:pos:R:3:forces:R:3 energy=-1.9886025943832826 pbc="F F F"
Pb       0.00000000       0.00000000       0.00000000       0.00000000       0.00000000       0.51203102
Pb       0.00000000       0.00000000       4.94181818       0.00000000       0.00000000      -0.51203102
2
Properties=species:S:1:pos:R:3:forces:R:3 energy=-1.9586933668204332 pbc="F F F"
Pb       0.00000000       0.00000000       0.00000000       0.00000000       0.00000000       0.50464118
Pb       0.00000000       0.00000000       5.00060606       0.00000000       0.00000000      -0.50464118
2
Properties=species:S:1:pos:R:3:forces:R:3 energy=-1.9294044158612358 pbc="F F F"
Pb       0.00000000       0.00000000       0.00000000       0.00000000       0.00000000       0.49041045
Pb       0.00000000       0.00000000       5.05939394       0.00000000       0.00000000      -0.49041045
2
Properties=species:S:1:pos:R:3:forces:R:3 energy=-1.9011583524689073 pbc="F F F"
Pb       0.00000000       0.00000000       0.00000000       0.00000000       0.00000000       0.47006312
Pb       0.00000000       0.00000000       5.11818182       0.00000000       0.00000000      -0.47006312
2
Properties=species:S:1:pos:R:3:forces:R:3 energy=-1.8740842151402362 pbc="F F F"
Pb       0.00000000       0.00000000       0.00000000       0.00000000       0.00000000       0.45271182
Pb       0.00000000       0.00000000       5.17696970       0.00000000       0.00000000      -0.45271182
2
Properties=species:S:1:pos:R:3:forces:R:3 energy=-1.8475902574899257 pbc="F F F"
Pb       0.00000000       0.00000000       0.00000000       0.00000000       0.00000000       0.45241123
Pb       0.00000000       0.00000000       5.23575758       0.00000000       0.00000000      -0.45241123
2
Properties=species:S:1:pos:R:3:forces:R:3 energy=-1.8204880629599953 pbc="F F F"
Pb       0.00000000       0.00000000       0.00000000       0.00000000       0.00000000       0.47177798
Pb       0.00000000       0.00000000       5.29454545       0.00000000       0.00000000      -0.47177798
2
Properties=species:S:1:pos:R:3:forces:R:3 energy=-1.792149434128959 pbc="F F F"
Pb       0.00000000       0.00000000       0.00000000       0.00000000       0.00000000       0.48936069
Pb       0.00000000       0.00000000       5.35333333       0.00000000       0.00000000      -0.48936069
2
Properties=species:S:1:pos:R:3:forces:R:3 energy=-1.7635203889286124 pbc="F F F"
Pb       0.00000000       0.00000000       0.00000000       0.00000000       0.00000000       0.47906819
Pb       0.00000000       0.00000000       5.41212121       0.00000000       0.00000000      -0.47906819
2
Properties=species:S:1:pos:R:3:forces:R:3 energy=-1.736348803657035 pbc="F F F"
Pb       0.00000000       0.00000000       0.00000000       0.00000000       0.00000000       0.44302469
Pb       0.00000000       0.00000000       5.47090909       0.00000000       0.00000000      -0.44302469
2
Properties=species:S:1:pos:R:3:forces:R:3 energy=-1.7113062722056276 pbc="F F F"
Pb       0.00000000       0.00000000       0.00000000       0.00000000       0.00000000       0.41314715
Pb       0.00000000       0.00000000       5.52969697       0.00000000       0.00000000      -0.41314715
2
Properties=species:S:1:pos:R:3:forces:R:3 energy=-1.6870154806334905 pbc="F F F"
Pb       0.00000000       0.00000000       0.00000000       0.00000000       0.00000000       0.42050451
Pb       0.00000000       0.00000000       5.58848485       0.00000000       0.00000000      -0.42050451
2
Properties=species:S:1:pos:R:3:forces:R:3 energy=-1.6612748204403112 pbc="F F F"
Pb       0.00000000       0.00000000       0.00000000       0.00000000       0.00000000       0.45706451
Pb       0.00000000       0.00000000       5.64727273       0.00000000       0.00000000      -0.45706451
2
Properties=species:S:1:pos:R:3:forces:R:3 energy=-1.633747050722005 pbc="F F F"
Pb       0.00000000       0.00000000       0.00000000       0.00000000       0.00000000       0.46996954
Pb       0.00000000       0.00000000       5.70606061       0.00000000       0.00000000      -0.46996954
2
Properties=species:S:1:pos:R:3:forces:R:3 energy=-1.6073813806318094 pbc="F F F"
Pb       0.00000000       0.00000000       0.00000000       0.00000000       0.00000000       0.41225123
Pb       0.00000000       0.00000000       5.76484848       0.00000000       0.00000000      -0.41225123
2
Properties=species:S:1:pos:R:3:forces:R:3 energy=-1.5865232853012547 pbc="F F F"
Pb       0.00000000       0.00000000       0.00000000       0.00000000       0.00000000       0.29058111
Pb       0.00000000       0.00000000       5.82363636       0.00000000       0.00000000      -0.29058111
2
Properties=species:S:1:pos:R:3:forces:R:3 energy=-1.5735898795477954 pbc="F F F"
Pb       0.00000000       0.00000000       0.00000000       0.00000000       0.00000000       0.15311503
Pb       0.00000000       0.00000000       5.88242424       0.00000000       0.00000000      -0.15311503
2
Properties=species:S:1:pos:R:3:forces:R:3 energy=-1.5678550033199716 pbc="F F F"
Pb       0.00000000       0.00000000       0.00000000       0.00000000       0.00000000       0.04990881
Pb       0.00000000       0.00000000       5.94121212       0.00000000       0.00000000      -0.04990881
2
Properties=species:S:1:pos:R:3:forces:R:3 energy=-1.5664181357959466 pbc="F F F"
Pb       0.00000000       0.00000000       0.00000000       0.00000000       0.00000000       0.01160836
Pb       0.00000000       0.00000000       6.00000000       0.00000000       0.00000000      -0.01160836
