2
Properties=species:S:1:pos:R:3:forces:R:3 energy=54730.4844823199 pbc="F F F"
Pr       0.00000000       0.00000000       0.00000000       0.00000000       0.00000000 -1346148.75000000
Pr       0.00000000       0.00000000       0.10000000       0.00000000       0.00000000 1346148.75000000
2
Properties=species:S:1:pos:R:3:forces:R:3 energy=15574.167099507402 pbc="F F F"
Pr       0.00000000       0.00000000       0.00000000       0.00000000       0.00000000 -286114.71875000
Pr       0.00000000       0.00000000       0.15959596       0.00000000       0.00000000  286114.71875000
2
Properties=species:S:1:pos:R:3:forces:R:3 energy=5776.604599507402 pbc="F F F"
Pr       0.00000000       0.00000000       0.00000000       0.00000000       0.00000000  -87951.96875000
Pr       0.00000000       0.00000000       0.21919192       0.00000000       0.00000000   87951.96875000
2
Properties=species:S:1:pos:R:3:forces:R:3 energy=2473.920761616777 pbc="F F F"
Pr       0.00000000       0.00000000       0.00000000       0.00000000       0.00000000  -33076.26562500
Pr       0.00000000       0.00000000       0.27878788       0.00000000       0.00000000   33076.26562500
2
Properties=species:S:1:pos:R:3:forces:R:3 energy=1160.9034276450734 pbc="F F F"
Pr       0.00000000       0.00000000       0.00000000       0.00000000       0.00000000  -14026.18652344
Pr       0.00000000       0.00000000       0.33838384       0.00000000       0.00000000   14026.18652344
2
Properties=species:S:1:pos:R:3:forces:R:3 energy=583.1404881919483 pbc="F F F"
Pr       0.00000000       0.00000000       0.00000000       0.00000000       0.00000000   -6445.79638672
Pr       0.00000000       0.00000000       0.39797980       0.00000000       0.00000000    6445.79638672
2
Properties=species:S:1:pos:R:3:forces:R:3 energy=310.084244295464 pbc="F F F"
Pr       0.00000000       0.00000000       0.00000000       0.00000000       0.00000000   -3150.10961914
Pr       0.00000000       0.00000000       0.45757576       0.00000000       0.00000000    3150.10961914
2
Properties=species:S:1:pos:R:3:forces:R:3 energy=173.44410758938525 pbc="F F F"
Pr       0.00000000       0.00000000       0.00000000       0.00000000       0.00000000   -1621.98364258
Pr       0.00000000       0.00000000       0.51717172       0.00000000       0.00000000    1621.98364258
2
Properties=species:S:1:pos:R:3:forces:R:3 energy=101.56457575437626 pbc="F F F"
Pr       0.00000000       0.00000000       0.00000000       0.00000000       0.00000000    -875.61108398
Pr       0.00000000       0.00000000       0.57676768       0.00000000       0.00000000     875.61108398
2
Properties=species:S:1:pos:R:3:forces:R:3 energy=61.960026384431146 pbc="F F F"
Pr       0.00000000       0.00000000       0.00000000       0.00000000       0.00000000    -494.54675293
Pr       0.00000000       0.00000000       0.63636364       0.00000000       0.00000000     494.54675293
2
Properties=species:S:1:pos:R:3:forces:R:3 energy=39.123985963632705 pbc="F F F"
Pr       0.00000000       0.00000000       0.00000000       0.00000000       0.00000000    -292.40054321
Pr       0.00000000       0.00000000       0.69595960       0.00000000       0.00000000     292.40054321
2
Properties=species:S:1:pos:R:3:forces:R:3 energy=25.336531472571764 pbc="F F F"
Pr       0.00000000       0.00000000       0.00000000       0.00000000       0.00000000    -180.74166870
Pr       0.00000000       0.00000000       0.75555556       0.00000000       0.00000000     180.74166870
2
Properties=species:S:1:pos:R:3:forces:R:3 energy=16.709404956244217 pbc="F F F"
Pr       0.00000000       0.00000000       0.00000000       0.00000000       0.00000000    -113.55109406
Pr       0.00000000       0.00000000       0.81515152       0.00000000       0.00000000     113.55109406
2
Properties=species:S:1:pos:R:3:forces:R:3 energy=11.425030006263839 pbc="F F F"
Pr       0.00000000       0.00000000       0.00000000       0.00000000       0.00000000     -65.93134308
Pr       0.00000000       0.00000000       0.87474747       0.00000000       0.00000000      65.93134308
2
Properties=species:S:1:pos:R:3:forces:R:3 energy=8.688629756811872 pbc="F F F"
Pr       0.00000000       0.00000000       0.00000000       0.00000000       0.00000000     -26.46432114
Pr       0.00000000       0.00000000       0.93434343       0.00000000       0.00000000      26.46432114
2
Properties=species:S:1:pos:R:3:forces:R:3 energy=8.26915659024955 pbc="F F F"
Pr       0.00000000       0.00000000       0.00000000       0.00000000       0.00000000      12.64225769
Pr       0.00000000       0.00000000       0.99393939       0.00000000       0.00000000     -12.64225769
2
Properties=species:S:1:pos:R:3:forces:R:3 energy=10.200564211277749 pbc="F F F"
Pr       0.00000000       0.00000000       0.00000000       0.00000000       0.00000000      51.65285492
Pr       0.00000000       0.00000000       1.05353535       0.00000000       0.00000000     -51.65285492
2
Properties=species:S:1:pos:R:3:forces:R:3 energy=14.189447163087285 pbc="F F F"
Pr       0.00000000       0.00000000       0.00000000       0.00000000       0.00000000      78.96084595
Pr       0.00000000       0.00000000       1.11313131       0.00000000       0.00000000     -78.96084595
2
Properties=species:S:1:pos:R:3:forces:R:3 energy=19.38328260831283 pbc="F F F"
Pr       0.00000000       0.00000000       0.00000000       0.00000000       0.00000000      94.98168945
Pr       0.00000000       0.00000000       1.17272727       0.00000000       0.00000000     -94.98168945
2
Properties=species:S:1:pos:R:3:forces:R:3 energy=25.29939318860789 pbc="F F F"
Pr       0.00000000       0.00000000       0.00000000       0.00000000       0.00000000      99.56159973
Pr       0.00000000       0.00000000       1.23232323       0.00000000       0.00000000     -99.56159973
2
Properties=species:S:1:pos:R:3:forces:R:3 energy=30.806253940327352 pbc="F F F"
Pr       0.00000000       0.00000000       0.00000000       0.00000000       0.00000000      82.48946381
Pr       0.00000000       0.00000000       1.29191919       0.00000000       0.00000000     -82.48946381
2
Properties=species:S:1:pos:R:3:forces:R:3 energy=34.76660068778995 pbc="F F F"
Pr       0.00000000       0.00000000       0.00000000       0.00000000       0.00000000      47.88697815
Pr       0.00000000       0.00000000       1.35151515       0.00000000       0.00000000     -47.88697815
2
Properties=species:S:1:pos:R:3:forces:R:3 energy=36.54355457775215 pbc="F F F"
Pr       0.00000000       0.00000000       0.00000000       0.00000000       0.00000000      12.82957458
Pr       0.00000000       0.00000000       1.41111111       0.00000000       0.00000000     -12.82957458
2
Properties=species:S:1:pos:R:3:forces:R:3 energy=36.35446386102427 pbc="F F F"
Pr       0.00000000       0.00000000       0.00000000       0.00000000       0.00000000     -18.75943375
Pr       0.00000000       0.00000000       1.47070707       0.00000000       0.00000000      18.75943375
2
Properties=species:S:1:pos:R:3:forces:R:3 energy=34.38736270926511 pbc="F F F"
Pr       0.00000000       0.00000000       0.00000000       0.00000000       0.00000000     -46.37465668
Pr       0.00000000       0.00000000       1.53030303       0.00000000       0.00000000      46.37465668
2
Properties=species:S:1:pos:R:3:forces:R:3 energy=30.946297943403373 pbc="F F F"
Pr       0.00000000       0.00000000       0.00000000       0.00000000       0.00000000     -67.99707794
Pr       0.00000000       0.00000000       1.58989899       0.00000000       0.00000000      67.99707794
2
Properties=species:S:1:pos:R:3:forces:R:3 energy=26.436169338005065 pbc="F F F"
Pr       0.00000000       0.00000000       0.00000000       0.00000000       0.00000000     -81.82758331
Pr       0.00000000       0.00000000       1.64949495       0.00000000       0.00000000      81.82758331
2
Properties=species:S:1:pos:R:3:forces:R:3 energy=21.405923501768616 pbc="F F F"
Pr       0.00000000       0.00000000       0.00000000       0.00000000       0.00000000     -85.04306030
Pr       0.00000000       0.00000000       1.70909091       0.00000000       0.00000000      85.04306030
2
Properties=species:S:1:pos:R:3:forces:R:3 energy=16.514522912533078 pbc="F F F"
Pr       0.00000000       0.00000000       0.00000000       0.00000000       0.00000000     -77.67415619
Pr       0.00000000       0.00000000       1.76868687       0.00000000       0.00000000      77.67415619
2
Properties=species:S:1:pos:R:3:forces:R:3 energy=12.249523390925884 pbc="F F F"
Pr       0.00000000       0.00000000       0.00000000       0.00000000       0.00000000     -65.17601013
Pr       0.00000000       0.00000000       1.82828283       0.00000000       0.00000000      65.17601013
2
Properties=species:S:1:pos:R:3:forces:R:3 energy=8.735491293901417 pbc="F F F"
Pr       0.00000000       0.00000000       0.00000000       0.00000000       0.00000000     -53.03528214
Pr       0.00000000       0.00000000       1.88787879       0.00000000       0.00000000      53.03528214
2
Properties=species:S:1:pos:R:3:forces:R:3 energy=5.891390433910346 pbc="F F F"
Pr       0.00000000       0.00000000       0.00000000       0.00000000       0.00000000     -42.71288300
Pr       0.00000000       0.00000000       1.94747475       0.00000000       0.00000000      42.71288300
2
Properties=species:S:1:pos:R:3:forces:R:3 energy=3.6084281708429162 pbc="F F F"
Pr       0.00000000       0.00000000       0.00000000       0.00000000       0.00000000     -34.20471954
Pr       0.00000000       0.00000000       2.00707071       0.00000000       0.00000000      34.20471954
2
Properties=species:S:1:pos:R:3:forces:R:3 energy=1.7807067936619774 pbc="F F F"
Pr       0.00000000       0.00000000       0.00000000       0.00000000       0.00000000     -27.38170815
Pr       0.00000000       0.00000000       2.06666667       0.00000000       0.00000000      27.38170815
2
Properties=species:S:1:pos:R:3:forces:R:3 energy=0.31997798564655083 pbc="F F F"
Pr       0.00000000       0.00000000       0.00000000       0.00000000       0.00000000     -21.81059837
Pr       0.00000000       0.00000000       2.12626263       0.00000000       0.00000000      21.81059837
2
Properties=species:S:1:pos:R:3:forces:R:3 energy=-0.8362862373720229 pbc="F F F"
Pr       0.00000000       0.00000000       0.00000000       0.00000000       0.00000000     -17.11849403
Pr       0.00000000       0.00000000       2.18585859       0.00000000       0.00000000      17.11849403
2
Properties=species:S:1:pos:R:3:forces:R:3 energy=-1.733681960617461 pbc="F F F"
Pr       0.00000000       0.00000000       0.00000000       0.00000000       0.00000000     -13.09797096
Pr       0.00000000       0.00000000       2.24545455       0.00000000       0.00000000      13.09797096
2
Properties=species:S:1:pos:R:3:forces:R:3 energy=-2.4087982668896046 pbc="F F F"
Pr       0.00000000       0.00000000       0.00000000       0.00000000       0.00000000      -9.65107918
Pr       0.00000000       0.00000000       2.30505051       0.00000000       0.00000000       9.65107918
2
Properties=species:S:1:pos:R:3:forces:R:3 energy=-2.895140588939043 pbc="F F F"
Pr       0.00000000       0.00000000       0.00000000       0.00000000       0.00000000      -6.76529980
Pr       0.00000000       0.00000000       2.36464646       0.00000000       0.00000000       6.76529980
2
Properties=species:S:1:pos:R:3:forces:R:3 energy=-3.2266899285539394 pbc="F F F"
Pr       0.00000000       0.00000000       0.00000000       0.00000000       0.00000000      -4.45907593
Pr       0.00000000       0.00000000       2.42424242       0.00000000       0.00000000       4.45907593
2
Properties=species:S:1:pos:R:3:forces:R:3 energy=-3.438225624630984 pbc="F F F"
Pr       0.00000000       0.00000000       0.00000000       0.00000000       0.00000000      -2.73537207
Pr       0.00000000       0.00000000       2.48383838       0.00000000       0.00000000       2.73537207
2
Properties=species:S:1:pos:R:3:forces:R:3 energy=-3.5636233843094947 pbc="F F F"
Pr       0.00000000       0.00000000       0.00000000       0.00000000       0.00000000      -1.55862153
Pr       0.00000000       0.00000000       2.54343434       0.00000000       0.00000000       1.55862153
2
Properties=species:S:1:pos:R:3:forces:R:3 energy=-3.6332364299421216 pbc="F F F"
Pr       0.00000000       0.00000000       0.00000000       0.00000000       0.00000000      -0.84545815
Pr       0.00000000       0.00000000       2.60303030       0.00000000       0.00000000       0.84545815
2
Properties=species:S:1:pos:R:3:forces:R:3 energy=-3.6711884311912875 pbc="F F F"
Pr       0.00000000       0.00000000       0.00000000       0.00000000       0.00000000      -0.47386959
Pr       0.00000000       0.00000000       2.66262626       0.00000000       0.00000000       0.47386959
2
Properties=species:S:1:pos:R:3:forces:R:3 energy=-3.6938272741805958 pbc="F F F"
Pr       0.00000000       0.00000000       0.00000000       0.00000000       0.00000000      -0.30975536
Pr       0.00000000       0.00000000       2.72222222       0.00000000       0.00000000       0.30975536
2
Properties=species:S:1:pos:R:3:forces:R:3 energy=-3.7098814744181072 pbc="F F F"
Pr       0.00000000       0.00000000       0.00000000       0.00000000       0.00000000      -0.23604535
Pr       0.00000000       0.00000000       2.78181818       0.00000000       0.00000000       0.23604535
2
Properties=species:S:1:pos:R:3:forces:R:3 energy=-3.722076154918817 pbc="F F F"
Pr       0.00000000       0.00000000       0.00000000       0.00000000       0.00000000      -0.16932584
Pr       0.00000000       0.00000000       2.84141414       0.00000000       0.00000000       0.16932584
2
Properties=species:S:1:pos:R:3:forces:R:3 energy=-3.7292247660909377 pbc="F F F"
Pr       0.00000000       0.00000000       0.00000000       0.00000000       0.00000000      -0.06134229
Pr       0.00000000       0.00000000       2.90101010       0.00000000       0.00000000       0.06134229
2
Properties=species:S:1:pos:R:3:forces:R:3 energy=-3.7281728260482034 pbc="F F F"
Pr       0.00000000       0.00000000       0.00000000       0.00000000       0.00000000       0.10705381
Pr       0.00000000       0.00000000       2.96060606       0.00000000       0.00000000      -0.10705381
2
Properties=species:S:1:pos:R:3:forces:R:3 energy=-3.7153326059963483 pbc="F F F"
Pr       0.00000000       0.00000000       0.00000000       0.00000000       0.00000000       0.33183101
Pr       0.00000000       0.00000000       3.02020202       0.00000000       0.00000000      -0.33183101
2
Properties=species:S:1:pos:R:3:forces:R:3 energy=-3.6879465633048283 pbc="F F F"
Pr       0.00000000       0.00000000       0.00000000       0.00000000       0.00000000       0.59008533
Pr       0.00000000       0.00000000       3.07979798       0.00000000       0.00000000      -0.59008533
2
Properties=species:S:1:pos:R:3:forces:R:3 energy=-3.6450455941254782 pbc="F F F"
Pr       0.00000000       0.00000000       0.00000000       0.00000000       0.00000000       0.84590846
Pr       0.00000000       0.00000000       3.13939394       0.00000000       0.00000000      -0.84590846
2
Properties=species:S:1:pos:R:3:forces:R:3 energy=-3.587946374548518 pbc="F F F"
Pr       0.00000000       0.00000000       0.00000000       0.00000000       0.00000000       1.06047881
Pr       0.00000000       0.00000000       3.19898990       0.00000000       0.00000000      -1.06047881
2
Properties=species:S:1:pos:R:3:forces:R:3 energy=-3.520061153261586 pbc="F F F"
Pr       0.00000000       0.00000000       0.00000000       0.00000000       0.00000000       1.20436132
Pr       0.00000000       0.00000000       3.25858586       0.00000000       0.00000000      -1.20436132
2
Properties=species:S:1:pos:R:3:forces:R:3 energy=-3.44603019702554 pbc="F F F"
Pr       0.00000000       0.00000000       0.00000000       0.00000000       0.00000000       1.26674008
Pr       0.00000000       0.00000000       3.31818182       0.00000000       0.00000000      -1.26674008
2
Properties=species:S:1:pos:R:3:forces:R:3 energy=-3.3705173737046636 pbc="F F F"
Pr       0.00000000       0.00000000       0.00000000       0.00000000       0.00000000       1.25714052
Pr       0.00000000       0.00000000       3.37777778       0.00000000       0.00000000      -1.25714052
2
Properties=species:S:1:pos:R:3:forces:R:3 energy=-3.2971462548748915 pbc="F F F"
Pr       0.00000000       0.00000000       0.00000000       0.00000000       0.00000000       1.19949710
Pr       0.00000000       0.00000000       3.43737374       0.00000000       0.00000000      -1.19949710
2
Properties=species:S:1:pos:R:3:forces:R:3 energy=-3.2279333061622597 pbc="F F F"
Pr       0.00000000       0.00000000       0.00000000       0.00000000       0.00000000       1.12219965
Pr       0.00000000       0.00000000       3.49696970       0.00000000       0.00000000      -1.12219965
2
Properties=species:S:1:pos:R:3:forces:R:3 energy=-3.1633021036586353 pbc="F F F"
Pr       0.00000000       0.00000000       0.00000000       0.00000000       0.00000000       1.04890013
Pr       0.00000000       0.00000000       3.55656566       0.00000000       0.00000000      -1.04890013
2
Properties=species:S:1:pos:R:3:forces:R:3 energy=-3.1025498603963815 pbc="F F F"
Pr       0.00000000       0.00000000       0.00000000       0.00000000       0.00000000       0.99354035
Pr       0.00000000       0.00000000       3.61616162       0.00000000       0.00000000      -0.99354035
2
Properties=species:S:1:pos:R:3:forces:R:3 energy=-3.044435648660444 pbc="F F F"
Pr       0.00000000       0.00000000       0.00000000       0.00000000       0.00000000       0.96040106
Pr       0.00000000       0.00000000       3.67575758       0.00000000       0.00000000      -0.96040106
2
Properties=species:S:1:pos:R:3:forces:R:3 energy=-2.9876758534747254 pbc="F F F"
Pr       0.00000000       0.00000000       0.00000000       0.00000000       0.00000000       0.94741207
Pr       0.00000000       0.00000000       3.73535354       0.00000000       0.00000000      -0.94741207
2
Properties=species:S:1:pos:R:3:forces:R:3 energy=-2.931203354268336 pbc="F F F"
Pr       0.00000000       0.00000000       0.00000000       0.00000000       0.00000000       0.94991702
Pr       0.00000000       0.00000000       3.79494949       0.00000000       0.00000000      -0.94991702
2
Properties=species:S:1:pos:R:3:forces:R:3 energy=-2.8742402828919915 pbc="F F F"
Pr       0.00000000       0.00000000       0.00000000       0.00000000       0.00000000       0.96318263
Pr       0.00000000       0.00000000       3.85454545       0.00000000       0.00000000      -0.96318263
2
Properties=species:S:1:pos:R:3:forces:R:3 energy=-2.8162593848010045 pbc="F F F"
Pr       0.00000000       0.00000000       0.00000000       0.00000000       0.00000000       0.98361367
Pr       0.00000000       0.00000000       3.91414141       0.00000000       0.00000000      -0.98361367
2
Properties=species:S:1:pos:R:3:forces:R:3 energy=-2.7569006762588124 pbc="F F F"
Pr       0.00000000       0.00000000       0.00000000       0.00000000       0.00000000       1.00916708
Pr       0.00000000       0.00000000       3.97373737       0.00000000       0.00000000      -1.00916708
2
Properties=species:S:1:pos:R:3:forces:R:3 energy=-2.695886590329491 pbc="F F F"
Pr       0.00000000       0.00000000       0.00000000       0.00000000       0.00000000       1.03918016
Pr       0.00000000       0.00000000       4.03333333       0.00000000       0.00000000      -1.03918016
2
Properties=species:S:1:pos:R:3:forces:R:3 energy=-2.6329505526743295 pbc="F F F"
Pr       0.00000000       0.00000000       0.00000000       0.00000000       0.00000000       1.07362235
Pr       0.00000000       0.00000000       4.09292929       0.00000000       0.00000000      -1.07362235
2
Properties=species:S:1:pos:R:3:forces:R:3 energy=-2.567840420782253 pbc="F F F"
Pr       0.00000000       0.00000000       0.00000000       0.00000000       0.00000000       1.11196601
Pr       0.00000000       0.00000000       4.15252525       0.00000000       0.00000000      -1.11196601
2
Properties=species:S:1:pos:R:3:forces:R:3 energy=-2.5003742739173243 pbc="F F F"
Pr       0.00000000       0.00000000       0.00000000       0.00000000       0.00000000       1.15223444
Pr       0.00000000       0.00000000       4.21212121       0.00000000       0.00000000      -1.15223444
2
Properties=species:S:1:pos:R:3:forces:R:3 energy=-2.4305379009750263 pbc="F F F"
Pr       0.00000000       0.00000000       0.00000000       0.00000000       0.00000000       1.19069076
Pr       0.00000000       0.00000000       4.27171717       0.00000000       0.00000000      -1.19069076
2
Properties=species:S:1:pos:R:3:forces:R:3 energy=-2.358590409577415 pbc="F F F"
Pr       0.00000000       0.00000000       0.00000000       0.00000000       0.00000000       1.22225583
Pr       0.00000000       0.00000000       4.33131313       0.00000000       0.00000000      -1.22225583
2
Properties=species:S:1:pos:R:3:forces:R:3 energy=-2.2851000878943917 pbc="F F F"
Pr       0.00000000       0.00000000       0.00000000       0.00000000       0.00000000       1.24156547
Pr       0.00000000       0.00000000       4.39090909       0.00000000       0.00000000      -1.24156547
2
Properties=species:S:1:pos:R:3:forces:R:3 energy=-2.2109355601496024 pbc="F F F"
Pr       0.00000000       0.00000000       0.00000000       0.00000000       0.00000000       1.24429834
Pr       0.00000000       0.00000000       4.45050505       0.00000000       0.00000000      -1.24429834
2
Properties=species:S:1:pos:R:3:forces:R:3 energy=-2.1371613085976358 pbc="F F F"
Pr       0.00000000       0.00000000       0.00000000       0.00000000       0.00000000       1.22841597
Pr       0.00000000       0.00000000       4.51010101       0.00000000       0.00000000      -1.22841597
2
Properties=species:S:1:pos:R:3:forces:R:3 energy=-2.064869715138645 pbc="F F F"
Pr       0.00000000       0.00000000       0.00000000       0.00000000       0.00000000       1.19493723
Pr       0.00000000       0.00000000       4.56969697       0.00000000       0.00000000      -1.19493723
2
Properties=species:S:1:pos:R:3:forces:R:3 energy=-1.9950023792645983 pbc="F F F"
Pr       0.00000000       0.00000000       0.00000000       0.00000000       0.00000000       1.14801669
Pr       0.00000000       0.00000000       4.62929293       0.00000000       0.00000000      -1.14801669
2
Properties=species:S:1:pos:R:3:forces:R:3 energy=-1.9281755904916837 pbc="F F F"
Pr       0.00000000       0.00000000       0.00000000       0.00000000       0.00000000       1.09412074
Pr       0.00000000       0.00000000       4.68888889       0.00000000       0.00000000      -1.09412074
2
Properties=species:S:1:pos:R:3:forces:R:3 energy=-1.8645872385764597 pbc="F F F"
Pr       0.00000000       0.00000000       0.00000000       0.00000000       0.00000000       1.04041374
Pr       0.00000000       0.00000000       4.74848485       0.00000000       0.00000000      -1.04041374
2
Properties=species:S:1:pos:R:3:forces:R:3 energy=-1.8040455049407709 pbc="F F F"
Pr       0.00000000       0.00000000       0.00000000       0.00000000       0.00000000       0.99271667
Pr       0.00000000       0.00000000       4.80808081       0.00000000       0.00000000      -0.99271667
2
Properties=species:S:1:pos:R:3:forces:R:3 energy=-1.746091224423885 pbc="F F F"
Pr       0.00000000       0.00000000       0.00000000       0.00000000       0.00000000       0.95353699
Pr       0.00000000       0.00000000       4.86767677       0.00000000       0.00000000      -0.95353699
2
Properties=species:S:1:pos:R:3:forces:R:3 energy=-1.690254659756282 pbc="F F F"
Pr       0.00000000       0.00000000       0.00000000       0.00000000       0.00000000       0.92100781
Pr       0.00000000       0.00000000       4.92727273       0.00000000       0.00000000      -0.92100781
2
Properties=species:S:1:pos:R:3:forces:R:3 energy=-1.6362889588660559 pbc="F F F"
Pr       0.00000000       0.00000000       0.00000000       0.00000000       0.00000000       0.88975471
Pr       0.00000000       0.00000000       4.98686869       0.00000000       0.00000000      -0.88975471
2
Properties=species:S:1:pos:R:3:forces:R:3 energy=-1.5842750970675858 pbc="F F F"
Pr       0.00000000       0.00000000       0.00000000       0.00000000       0.00000000       0.85548270
Pr       0.00000000       0.00000000       5.04646465       0.00000000       0.00000000      -0.85548270
2
Properties=species:S:1:pos:R:3:forces:R:3 energy=-1.5342919540973095 pbc="F F F"
Pr       0.00000000       0.00000000       0.00000000       0.00000000       0.00000000       0.82353479
Pr       0.00000000       0.00000000       5.10606061       0.00000000       0.00000000      -0.82353479
2
Properties=species:S:1:pos:R:3:forces:R:3 energy=-1.485650094989241 pbc="F F F"
Pr       0.00000000       0.00000000       0.00000000       0.00000000       0.00000000       0.81483185
Pr       0.00000000       0.00000000       5.16565657       0.00000000       0.00000000      -0.81483185
2
Properties=species:S:1:pos:R:3:forces:R:3 energy=-1.4362092081932736 pbc="F F F"
Pr       0.00000000       0.00000000       0.00000000       0.00000000       0.00000000       0.85312229
Pr       0.00000000       0.00000000       5.22525253       0.00000000       0.00000000      -0.85312229
2
Properties=species:S:1:pos:R:3:forces:R:3 energy=-1.3831738074080446 pbc="F F F"
Pr       0.00000000       0.00000000       0.00000000       0.00000000       0.00000000       0.92953968
Pr       0.00000000       0.00000000       5.28484848       0.00000000       0.00000000      -0.92953968
2
Properties=species:S:1:pos:R:3:forces:R:3 energy=-1.3257858498178865 pbc="F F F"
Pr       0.00000000       0.00000000       0.00000000       0.00000000       0.00000000       0.98731583
Pr       0.00000000       0.00000000       5.34444444       0.00000000       0.00000000      -0.98731583
2
Properties=species:S:1:pos:R:3:forces:R:3 energy=-1.26697193087402 pbc="F F F"
Pr       0.00000000       0.00000000       0.00000000       0.00000000       0.00000000       0.97338820
Pr       0.00000000       0.00000000       5.40404040       0.00000000       0.00000000      -0.97338820
2
Properties=species:S:1:pos:R:3:forces:R:3 energy=-1.2107758548185676 pbc="F F F"
Pr       0.00000000       0.00000000       0.00000000       0.00000000       0.00000000       0.91106212
Pr       0.00000000       0.00000000       5.46363636       0.00000000       0.00000000      -0.91106212
2
Properties=species:S:1:pos:R:3:forces:R:3 energy=-1.1572952938027103 pbc="F F F"
Pr       0.00000000       0.00000000       0.00000000       0.00000000       0.00000000       0.90454298
Pr       0.00000000       0.00000000       5.52323232       0.00000000       0.00000000      -0.90454298
2
Properties=species:S:1:pos:R:3:forces:R:3 energy=-1.0996842576296455 pbc="F F F"
Pr       0.00000000       0.00000000       0.00000000       0.00000000       0.00000000       1.05968618
Pr       0.00000000       0.00000000       5.58282828       0.00000000       0.00000000      -1.05968618
2
Properties=species:S:1:pos:R:3:forces:R:3 energy=-1.0279476918315753 pbc="F F F"
Pr       0.00000000       0.00000000       0.00000000       0.00000000       0.00000000       1.36134648
Pr       0.00000000       0.00000000       5.64242424       0.00000000       0.00000000      -1.36134648
2
Properties=species:S:1:pos:R:3:forces:R:3 energy=-0.9381818803791868 pbc="F F F"
Pr       0.00000000       0.00000000       0.00000000       0.00000000       0.00000000       1.61926329
Pr       0.00000000       0.00000000       5.70202020       0.00000000       0.00000000      -1.61926329
2
Properties=species:S:1:pos:R:3:forces:R:3 energy=-0.8408296613045627 pbc="F F F"
Pr       0.00000000       0.00000000       0.00000000       0.00000000       0.00000000       1.59138942
Pr       0.00000000       0.00000000       5.76161616       0.00000000       0.00000000      -1.59138942
2
Properties=species:S:1:pos:R:3:forces:R:3 energy=-0.7556250550027579 pbc="F F F"
Pr       0.00000000       0.00000000       0.00000000       0.00000000       0.00000000       1.21602297
Pr       0.00000000       0.00000000       5.82121212       0.00000000       0.00000000      -1.21602297
2
Properties=species:S:1:pos:R:3:forces:R:3 energy=-0.6994610799925507 pbc="F F F"
Pr       0.00000000       0.00000000       0.00000000       0.00000000       0.00000000       0.66992795
Pr       0.00000000       0.00000000       5.88080808       0.00000000       0.00000000      -0.66992795
2
Properties=species:S:1:pos:R:3:forces:R:3 energy=-0.6737260918987126 pbc="F F F"
Pr       0.00000000       0.00000000       0.00000000       0.00000000       0.00000000       0.21928623
Pr       0.00000000       0.00000000       5.94040404       0.00000000       0.00000000      -0.21928623
2
Properties=species:S:1:pos:R:3:forces:R:3 energy=-0.6675005098480447 pbc="F F F"
Pr       0.00000000       0.00000000       0.00000000       0.00000000       0.00000000       0.04782233
Pr       0.00000000       0.00000000       6.00000000       0.00000000       0.00000000      -0.04782233
