2
Properties=species:S:1:pos:R:3:forces:R:3 energy=5650.202280910262 pbc="F F F"
Rb       0.00000000       0.00000000       0.00000000       0.00000000       0.00000000  -91175.64843750
Rb       0.00000000       0.00000000       0.18000000       0.00000000       0.00000000   91175.64843750
2
Properties=species:S:1:pos:R:3:forces:R:3 energy=2373.232554347762 pbc="F F F"
Rb       0.00000000       0.00000000       0.00000000       0.00000000       0.00000000  -32256.53906250
Rb       0.00000000       0.00000000       0.23878788       0.00000000       0.00000000   32256.53906250
2
Properties=species:S:1:pos:R:3:forces:R:3 energy=1122.6278180196368 pbc="F F F"
Rb       0.00000000       0.00000000       0.00000000       0.00000000       0.00000000  -13448.05175781
Rb       0.00000000       0.00000000       0.29757576       0.00000000       0.00000000   13448.05175781
2
Properties=species:S:1:pos:R:3:forces:R:3 energy=575.4647320821368 pbc="F F F"
Rb       0.00000000       0.00000000       0.00000000       0.00000000       0.00000000   -6215.99121094
Rb       0.00000000       0.00000000       0.35636364       0.00000000       0.00000000    6215.99121094
2
Properties=species:S:1:pos:R:3:forces:R:3 energy=314.1585797383869 pbc="F F F"
Rb       0.00000000       0.00000000       0.00000000       0.00000000       0.00000000   -3081.06518555
Rb       0.00000000       0.00000000       0.41515152       0.00000000       0.00000000    3081.06518555
2
Properties=species:S:1:pos:R:3:forces:R:3 energy=181.47078982297862 pbc="F F F"
Rb       0.00000000       0.00000000       0.00000000       0.00000000       0.00000000   -1608.69299316
Rb       0.00000000       0.00000000       0.47393939       0.00000000       0.00000000    1608.69299316
2
Properties=species:S:1:pos:R:3:forces:R:3 energy=110.82995882932627 pbc="F F F"
Rb       0.00000000       0.00000000       0.00000000       0.00000000       0.00000000    -875.99188232
Rb       0.00000000       0.00000000       0.53272727       0.00000000       0.00000000     875.99188232
2
Properties=species:S:1:pos:R:3:forces:R:3 energy=71.72406283640034 pbc="F F F"
Rb       0.00000000       0.00000000       0.00000000       0.00000000       0.00000000    -494.24032593
Rb       0.00000000       0.00000000       0.59151515       0.00000000       0.00000000     494.24032593
2
Properties=species:S:1:pos:R:3:forces:R:3 energy=49.35033694845488 pbc="F F F"
Rb       0.00000000       0.00000000       0.00000000       0.00000000       0.00000000    -287.23611450
Rb       0.00000000       0.00000000       0.65030303       0.00000000       0.00000000     287.23611450
2
Properties=species:S:1:pos:R:3:forces:R:3 energy=36.203978464800294 pbc="F F F"
Rb       0.00000000       0.00000000       0.00000000       0.00000000       0.00000000    -170.75132751
Rb       0.00000000       0.00000000       0.70909091       0.00000000       0.00000000     170.75132751
2
Properties=species:S:1:pos:R:3:forces:R:3 energy=28.334305699035205 pbc="F F F"
Rb       0.00000000       0.00000000       0.00000000       0.00000000       0.00000000    -102.86530304
Rb       0.00000000       0.00000000       0.76787879       0.00000000       0.00000000     102.86530304
2
Properties=species:S:1:pos:R:3:forces:R:3 energy=23.58492560159607 pbc="F F F"
Rb       0.00000000       0.00000000       0.00000000       0.00000000       0.00000000     -62.07382584
Rb       0.00000000       0.00000000       0.82666667       0.00000000       0.00000000      62.07382584
2
Properties=species:S:1:pos:R:3:forces:R:3 energy=20.728564231442846 pbc="F F F"
Rb       0.00000000       0.00000000       0.00000000       0.00000000       0.00000000     -37.13474655
Rb       0.00000000       0.00000000       0.88545455       0.00000000       0.00000000      37.13474655
2
Properties=species:S:1:pos:R:3:forces:R:3 energy=19.026860233100777 pbc="F F F"
Rb       0.00000000       0.00000000       0.00000000       0.00000000       0.00000000     -22.06914330
Rb       0.00000000       0.00000000       0.94424242       0.00000000       0.00000000      22.06914330
2
Properties=species:S:1:pos:R:3:forces:R:3 energy=18.00841811718398 pbc="F F F"
Rb       0.00000000       0.00000000       0.00000000       0.00000000       0.00000000     -13.43052673
Rb       0.00000000       0.00000000       1.00303030       0.00000000       0.00000000      13.43052673
2
Properties=species:S:1:pos:R:3:forces:R:3 energy=17.36968144143171 pbc="F F F"
Rb       0.00000000       0.00000000       0.00000000       0.00000000       0.00000000      -8.79373455
Rb       0.00000000       0.00000000       1.06181818       0.00000000       0.00000000       8.79373455
2
Properties=species:S:1:pos:R:3:forces:R:3 energy=16.931998404071134 pbc="F F F"
Rb       0.00000000       0.00000000       0.00000000       0.00000000       0.00000000      -6.35372543
Rb       0.00000000       0.00000000       1.12060606       0.00000000       0.00000000       6.35372543
2
Properties=species:S:1:pos:R:3:forces:R:3 energy=16.598918197854285 pbc="F F F"
Rb       0.00000000       0.00000000       0.00000000       0.00000000       0.00000000      -5.14991760
Rb       0.00000000       0.00000000       1.17939394       0.00000000       0.00000000       5.14991760
2
Properties=species:S:1:pos:R:3:forces:R:3 energy=16.3067468336244 pbc="F F F"
Rb       0.00000000       0.00000000       0.00000000       0.00000000       0.00000000      -4.96309423
Rb       0.00000000       0.00000000       1.23818182       0.00000000       0.00000000       4.96309423
2
Properties=species:S:1:pos:R:3:forces:R:3 energy=15.994380492164602 pbc="F F F"
Rb       0.00000000       0.00000000       0.00000000       0.00000000       0.00000000      -5.84623909
Rb       0.00000000       0.00000000       1.29696970       0.00000000       0.00000000       5.84623909
2
Properties=species:S:1:pos:R:3:forces:R:3 energy=15.598351201963302 pbc="F F F"
Rb       0.00000000       0.00000000       0.00000000       0.00000000       0.00000000      -7.79553938
Rb       0.00000000       0.00000000       1.35575758       0.00000000       0.00000000       7.79553938
2
Properties=species:S:1:pos:R:3:forces:R:3 energy=15.06069464598888 pbc="F F F"
Rb       0.00000000       0.00000000       0.00000000       0.00000000       0.00000000     -10.60923958
Rb       0.00000000       0.00000000       1.41454545       0.00000000       0.00000000      10.60923958
2
Properties=species:S:1:pos:R:3:forces:R:3 energy=14.34263538971404 pbc="F F F"
Rb       0.00000000       0.00000000       0.00000000       0.00000000       0.00000000     -13.84337044
Rb       0.00000000       0.00000000       1.47333333       0.00000000       0.00000000      13.84337044
2
Properties=species:S:1:pos:R:3:forces:R:3 energy=13.435759174148597 pbc="F F F"
Rb       0.00000000       0.00000000       0.00000000       0.00000000       0.00000000     -16.94198608
Rb       0.00000000       0.00000000       1.53212121       0.00000000       0.00000000      16.94198608
2
Properties=species:S:1:pos:R:3:forces:R:3 energy=12.3625937082499 pbc="F F F"
Rb       0.00000000       0.00000000       0.00000000       0.00000000       0.00000000     -19.43762779
Rb       0.00000000       0.00000000       1.59090909       0.00000000       0.00000000      19.43762779
2
Properties=species:S:1:pos:R:3:forces:R:3 energy=11.168426135368508 pbc="F F F"
Rb       0.00000000       0.00000000       0.00000000       0.00000000       0.00000000     -21.01700592
Rb       0.00000000       0.00000000       1.64969697       0.00000000       0.00000000      21.01700592
2
Properties=species:S:1:pos:R:3:forces:R:3 energy=9.912790545803421 pbc="F F F"
Rb       0.00000000       0.00000000       0.00000000       0.00000000       0.00000000     -21.51557541
Rb       0.00000000       0.00000000       1.70848485       0.00000000       0.00000000      21.51557541
2
Properties=species:S:1:pos:R:3:forces:R:3 energy=8.660001799201783 pbc="F F F"
Rb       0.00000000       0.00000000       0.00000000       0.00000000       0.00000000     -20.93536568
Rb       0.00000000       0.00000000       1.76727273       0.00000000       0.00000000      20.93536568
2
Properties=species:S:1:pos:R:3:forces:R:3 energy=7.4689931710432536 pbc="F F F"
Rb       0.00000000       0.00000000       0.00000000       0.00000000       0.00000000     -19.45622826
Rb       0.00000000       0.00000000       1.82606061       0.00000000       0.00000000      19.45622826
2
Properties=species:S:1:pos:R:3:forces:R:3 energy=6.383717153311696 pbc="F F F"
Rb       0.00000000       0.00000000       0.00000000       0.00000000       0.00000000     -17.40185738
Rb       0.00000000       0.00000000       1.88484848       0.00000000       0.00000000      17.40185738
2
Properties=species:S:1:pos:R:3:forces:R:3 energy=5.426667604277958 pbc="F F F"
Rb       0.00000000       0.00000000       0.00000000       0.00000000       0.00000000     -15.15728188
Rb       0.00000000       0.00000000       1.94363636       0.00000000       0.00000000      15.15728188
2
Properties=species:S:1:pos:R:3:forces:R:3 energy=4.598529296947263 pbc="F F F"
Rb       0.00000000       0.00000000       0.00000000       0.00000000       0.00000000     -13.06356812
Rb       0.00000000       0.00000000       2.00242424       0.00000000       0.00000000      13.06356812
2
Properties=species:S:1:pos:R:3:forces:R:3 energy=3.8838584563662173 pbc="F F F"
Rb       0.00000000       0.00000000       0.00000000       0.00000000       0.00000000     -11.31253147
Rb       0.00000000       0.00000000       2.06121212       0.00000000       0.00000000      11.31253147
2
Properties=species:S:1:pos:R:3:forces:R:3 energy=3.2615703319194385 pbc="F F F"
Rb       0.00000000       0.00000000       0.00000000       0.00000000       0.00000000      -9.90956020
Rb       0.00000000       0.00000000       2.12000000       0.00000000       0.00000000       9.90956020
2
Properties=species:S:1:pos:R:3:forces:R:3 energy=2.713674850900016 pbc="F F F"
Rb       0.00000000       0.00000000       0.00000000       0.00000000       0.00000000      -8.76547623
Rb       0.00000000       0.00000000       2.17878788       0.00000000       0.00000000       8.76547623
2
Properties=species:S:1:pos:R:3:forces:R:3 energy=2.2274862803167124 pbc="F F F"
Rb       0.00000000       0.00000000       0.00000000       0.00000000       0.00000000      -7.80027151
Rb       0.00000000       0.00000000       2.23757576       0.00000000       0.00000000       7.80027151
2
Properties=species:S:1:pos:R:3:forces:R:3 energy=1.793911025452058 pbc="F F F"
Rb       0.00000000       0.00000000       0.00000000       0.00000000       0.00000000      -6.97065783
Rb       0.00000000       0.00000000       2.29636364       0.00000000       0.00000000       6.97065783
2
Properties=species:S:1:pos:R:3:forces:R:3 energy=1.4056586528862391 pbc="F F F"
Rb       0.00000000       0.00000000       0.00000000       0.00000000       0.00000000      -6.25583029
Rb       0.00000000       0.00000000       2.35515152       0.00000000       0.00000000       6.25583029
2
Properties=species:S:1:pos:R:3:forces:R:3 energy=1.056403620276443 pbc="F F F"
Rb       0.00000000       0.00000000       0.00000000       0.00000000       0.00000000      -5.64158154
Rb       0.00000000       0.00000000       2.41393939       0.00000000       0.00000000       5.64158154
2
Properties=species:S:1:pos:R:3:forces:R:3 energy=0.7406651007217034 pbc="F F F"
Rb       0.00000000       0.00000000       0.00000000       0.00000000       0.00000000      -5.11293316
Rb       0.00000000       0.00000000       2.47272727       0.00000000       0.00000000       5.11293316
2
Properties=species:S:1:pos:R:3:forces:R:3 energy=0.45392120110139994 pbc="F F F"
Rb       0.00000000       0.00000000       0.00000000       0.00000000       0.00000000      -4.65186834
Rb       0.00000000       0.00000000       2.53151515       0.00000000       0.00000000       4.65186834
2
Properties=species:S:1:pos:R:3:forces:R:3 energy=0.19279633848758818 pbc="F F F"
Rb       0.00000000       0.00000000       0.00000000       0.00000000       0.00000000      -4.23787117
Rb       0.00000000       0.00000000       2.59030303       0.00000000       0.00000000       4.23787117
2
Properties=species:S:1:pos:R:3:forces:R:3 energy=-0.04488192811812994 pbc="F F F"
Rb       0.00000000       0.00000000       0.00000000       0.00000000       0.00000000      -3.85124493
Rb       0.00000000       0.00000000       2.64909091       0.00000000       0.00000000       3.85124493
2
Properties=species:S:1:pos:R:3:forces:R:3 energy=-0.2602699688381328 pbc="F F F"
Rb       0.00000000       0.00000000       0.00000000       0.00000000       0.00000000      -3.47780275
Rb       0.00000000       0.00000000       2.70787879       0.00000000       0.00000000       3.47780275
2
Properties=species:S:1:pos:R:3:forces:R:3 energy=-0.45393088659059444 pbc="F F F"
Rb       0.00000000       0.00000000       0.00000000       0.00000000       0.00000000      -3.11193085
Rb       0.00000000       0.00000000       2.76666667       0.00000000       0.00000000       3.11193085
2
Properties=species:S:1:pos:R:3:forces:R:3 energy=-0.6263574539806759 pbc="F F F"
Rb       0.00000000       0.00000000       0.00000000       0.00000000       0.00000000      -2.75643444
Rb       0.00000000       0.00000000       2.82545455       0.00000000       0.00000000       2.75643444
2
Properties=species:S:1:pos:R:3:forces:R:3 energy=-0.7783886822433053 pbc="F F F"
Rb       0.00000000       0.00000000       0.00000000       0.00000000       0.00000000      -2.41971493
Rb       0.00000000       0.00000000       2.88424242       0.00000000       0.00000000       2.41971493
2
Properties=species:S:1:pos:R:3:forces:R:3 energy=-0.9114210521847064 pbc="F F F"
Rb       0.00000000       0.00000000       0.00000000       0.00000000       0.00000000      -2.11164904
Rb       0.00000000       0.00000000       2.94303030       0.00000000       0.00000000       2.11164904
2
Properties=species:S:1:pos:R:3:forces:R:3 energy=-1.0273778805628062 pbc="F F F"
Rb       0.00000000       0.00000000       0.00000000       0.00000000       0.00000000      -1.83971429
Rb       0.00000000       0.00000000       3.00181818       0.00000000       0.00000000       1.83971429
2
Properties=species:S:1:pos:R:3:forces:R:3 energy=-1.128492193037607 pbc="F F F"
Rb       0.00000000       0.00000000       0.00000000       0.00000000       0.00000000      -1.60671151
Rb       0.00000000       0.00000000       3.06060606       0.00000000       0.00000000       1.60671151
2
Properties=species:S:1:pos:R:3:forces:R:3 energy=-1.2170116827634585 pbc="F F F"
Rb       0.00000000       0.00000000       0.00000000       0.00000000       0.00000000      -1.41047597
Rb       0.00000000       0.00000000       3.11939394       0.00000000       0.00000000       1.41047597
2
Properties=species:S:1:pos:R:3:forces:R:3 energy=-1.2949358348986668 pbc="F F F"
Rb       0.00000000       0.00000000       0.00000000       0.00000000       0.00000000      -1.24508536
Rb       0.00000000       0.00000000       3.17818182       0.00000000       0.00000000       1.24508536
2
Properties=species:S:1:pos:R:3:forces:R:3 energy=-1.3638557330790027 pbc="F F F"
Rb       0.00000000       0.00000000       0.00000000       0.00000000       0.00000000      -1.10281754
Rb       0.00000000       0.00000000       3.23696970       0.00000000       0.00000000       1.10281754
2
Properties=species:S:1:pos:R:3:forces:R:3 energy=-1.4249035194306665 pbc="F F F"
Rb       0.00000000       0.00000000       0.00000000       0.00000000       0.00000000      -0.97607833
Rb       0.00000000       0.00000000       3.29575758       0.00000000       0.00000000       0.97607833
2
Properties=species:S:1:pos:R:3:forces:R:3 energy=-1.4788024656397214 pbc="F F F"
Rb       0.00000000       0.00000000       0.00000000       0.00000000       0.00000000      -0.85874838
Rb       0.00000000       0.00000000       3.35454545       0.00000000       0.00000000       0.85874838
2
Properties=species:S:1:pos:R:3:forces:R:3 energy=-1.5259747381498465 pbc="F F F"
Rb       0.00000000       0.00000000       0.00000000       0.00000000       0.00000000      -0.74676907
Rb       0.00000000       0.00000000       3.41333333       0.00000000       0.00000000       0.74676907
2
Properties=species:S:1:pos:R:3:forces:R:3 energy=-1.5666704079562093 pbc="F F F"
Rb       0.00000000       0.00000000       0.00000000       0.00000000       0.00000000      -0.63826311
Rb       0.00000000       0.00000000       3.47212121       0.00000000       0.00000000       0.63826311
2
Properties=species:S:1:pos:R:3:forces:R:3 energy=-1.6010891743774731 pbc="F F F"
Rb       0.00000000       0.00000000       0.00000000       0.00000000       0.00000000      -0.53340673
Rb       0.00000000       0.00000000       3.53090909       0.00000000       0.00000000       0.53340673
2
Properties=species:S:1:pos:R:3:forces:R:3 energy=-1.6294924392109977 pbc="F F F"
Rb       0.00000000       0.00000000       0.00000000       0.00000000       0.00000000      -0.43399632
Rb       0.00000000       0.00000000       3.58969697       0.00000000       0.00000000       0.43399632
2
Properties=species:S:1:pos:R:3:forces:R:3 energy=-1.652274021600209 pbc="F F F"
Rb       0.00000000       0.00000000       0.00000000       0.00000000       0.00000000      -0.34257290
Rb       0.00000000       0.00000000       3.64848485       0.00000000       0.00000000       0.34257290
2
Properties=species:S:1:pos:R:3:forces:R:3 energy=-1.6699698440813622 pbc="F F F"
Rb       0.00000000       0.00000000       0.00000000       0.00000000       0.00000000      -0.26128611
Rb       0.00000000       0.00000000       3.70727273       0.00000000       0.00000000       0.26128611
2
Properties=species:S:1:pos:R:3:forces:R:3 energy=-1.6832125629454668 pbc="F F F"
Rb       0.00000000       0.00000000       0.00000000       0.00000000       0.00000000      -0.19105080
Rb       0.00000000       0.00000000       3.76606061       0.00000000       0.00000000       0.19105080
2
Properties=species:S:1:pos:R:3:forces:R:3 energy=-1.69264184007321 pbc="F F F"
Rb       0.00000000       0.00000000       0.00000000       0.00000000       0.00000000      -0.13139305
Rb       0.00000000       0.00000000       3.82484848       0.00000000       0.00000000       0.13139305
2
Properties=species:S:1:pos:R:3:forces:R:3 energy=-1.6988414843773596 pbc="F F F"
Rb       0.00000000       0.00000000       0.00000000       0.00000000       0.00000000      -0.08094157
Rb       0.00000000       0.00000000       3.88363636       0.00000000       0.00000000       0.08094157
2
Properties=species:S:1:pos:R:3:forces:R:3 energy=-1.702307961127432 pbc="F F F"
Rb       0.00000000       0.00000000       0.00000000       0.00000000       0.00000000      -0.03816513
Rb       0.00000000       0.00000000       3.94242424       0.00000000       0.00000000       0.03816513
2
Properties=species:S:1:pos:R:3:forces:R:3 energy=-1.703455054951225 pbc="F F F"
Rb       0.00000000       0.00000000       0.00000000       0.00000000       0.00000000      -0.00184886
Rb       0.00000000       0.00000000       4.00121212       0.00000000       0.00000000       0.00184886
2
Properties=species:S:1:pos:R:3:forces:R:3 energy=-1.7026352854933302 pbc="F F F"
Rb       0.00000000       0.00000000       0.00000000       0.00000000       0.00000000       0.02886374
Rb       0.00000000       0.00000000       4.06000000       0.00000000       0.00000000      -0.02886374
2
Properties=species:S:1:pos:R:3:forces:R:3 energy=-1.7001565431987287 pbc="F F F"
Rb       0.00000000       0.00000000       0.00000000       0.00000000       0.00000000       0.05471896
Rb       0.00000000       0.00000000       4.11878788       0.00000000       0.00000000      -0.05471896
2
Properties=species:S:1:pos:R:3:forces:R:3 energy=-1.6962794301985402 pbc="F F F"
Rb       0.00000000       0.00000000       0.00000000       0.00000000       0.00000000       0.07660349
Rb       0.00000000       0.00000000       4.17757576       0.00000000       0.00000000      -0.07660349
2
Properties=species:S:1:pos:R:3:forces:R:3 energy=-1.691206843840481 pbc="F F F"
Rb       0.00000000       0.00000000       0.00000000       0.00000000       0.00000000       0.09558193
Rb       0.00000000       0.00000000       4.23636364       0.00000000       0.00000000      -0.09558193
2
Properties=species:S:1:pos:R:3:forces:R:3 energy=-1.6850775118849288 pbc="F F F"
Rb       0.00000000       0.00000000       0.00000000       0.00000000       0.00000000       0.11272013
Rb       0.00000000       0.00000000       4.29515152       0.00000000       0.00000000      -0.11272013
2
Properties=species:S:1:pos:R:3:forces:R:3 energy=-1.6779733443953178 pbc="F F F"
Rb       0.00000000       0.00000000       0.00000000       0.00000000       0.00000000       0.12884858
Rb       0.00000000       0.00000000       4.35393939       0.00000000       0.00000000      -0.12884858
2
Properties=species:S:1:pos:R:3:forces:R:3 energy=-1.6699384378847475 pbc="F F F"
Rb       0.00000000       0.00000000       0.00000000       0.00000000       0.00000000       0.14443192
Rb       0.00000000       0.00000000       4.41272727       0.00000000       0.00000000      -0.14443192
2
Properties=species:S:1:pos:R:3:forces:R:3 energy=-1.6609993726860215 pbc="F F F"
Rb       0.00000000       0.00000000       0.00000000       0.00000000       0.00000000       0.15961245
Rb       0.00000000       0.00000000       4.47151515       0.00000000       0.00000000      -0.15961245
2
Properties=species:S:1:pos:R:3:forces:R:3 energy=-1.6511784227210011 pbc="F F F"
Rb       0.00000000       0.00000000       0.00000000       0.00000000       0.00000000       0.17442614
Rb       0.00000000       0.00000000       4.53030303       0.00000000       0.00000000      -0.17442614
2
Properties=species:S:1:pos:R:3:forces:R:3 energy=-1.6404954928490367 pbc="F F F"
Rb       0.00000000       0.00000000       0.00000000       0.00000000       0.00000000       0.18904252
Rb       0.00000000       0.00000000       4.58909091       0.00000000       0.00000000      -0.18904252
2
Properties=species:S:1:pos:R:3:forces:R:3 energy=-1.6289479434289056 pbc="F F F"
Rb       0.00000000       0.00000000       0.00000000       0.00000000       0.00000000       0.20392239
Rb       0.00000000       0.00000000       4.64787879       0.00000000       0.00000000      -0.20392239
2
Properties=species:S:1:pos:R:3:forces:R:3 energy=-1.6165008358149973 pbc="F F F"
Rb       0.00000000       0.00000000       0.00000000       0.00000000       0.00000000       0.21972065
Rb       0.00000000       0.00000000       4.70666667       0.00000000       0.00000000      -0.21972065
2
Properties=species:S:1:pos:R:3:forces:R:3 energy=-1.603084297501107 pbc="F F F"
Rb       0.00000000       0.00000000       0.00000000       0.00000000       0.00000000       0.23699522
Rb       0.00000000       0.00000000       4.76545455       0.00000000       0.00000000      -0.23699522
2
Properties=species:S:1:pos:R:3:forces:R:3 energy=-1.5886029072258427 pbc="F F F"
Rb       0.00000000       0.00000000       0.00000000       0.00000000       0.00000000       0.25591469
Rb       0.00000000       0.00000000       4.82424242       0.00000000       0.00000000      -0.25591469
2
Properties=species:S:1:pos:R:3:forces:R:3 energy=-1.5729660248920094 pbc="F F F"
Rb       0.00000000       0.00000000       0.00000000       0.00000000       0.00000000       0.27640212
Rb       0.00000000       0.00000000       4.88303030       0.00000000       0.00000000      -0.27640212
2
Properties=species:S:1:pos:R:3:forces:R:3 energy=-1.5560613070537468 pbc="F F F"
Rb       0.00000000       0.00000000       0.00000000       0.00000000       0.00000000       0.29916632
Rb       0.00000000       0.00000000       4.94181818       0.00000000       0.00000000      -0.29916632
2
Properties=species:S:1:pos:R:3:forces:R:3 energy=-1.5376926399108342 pbc="F F F"
Rb       0.00000000       0.00000000       0.00000000       0.00000000       0.00000000       0.32693809
Rb       0.00000000       0.00000000       5.00060606       0.00000000       0.00000000      -0.32693809
2
Properties=species:S:1:pos:R:3:forces:R:3 energy=-1.5174123937899402 pbc="F F F"
Rb       0.00000000       0.00000000       0.00000000       0.00000000       0.00000000       0.36548859
Rb       0.00000000       0.00000000       5.05939394       0.00000000       0.00000000      -0.36548859
2
Properties=species:S:1:pos:R:3:forces:R:3 energy=-1.4943058526099458 pbc="F F F"
Rb       0.00000000       0.00000000       0.00000000       0.00000000       0.00000000       0.42540547
Rb       0.00000000       0.00000000       5.11818182       0.00000000       0.00000000      -0.42540547
2
Properties=species:S:1:pos:R:3:forces:R:3 energy=-1.4666443095870494 pbc="F F F"
Rb       0.00000000       0.00000000       0.00000000       0.00000000       0.00000000       0.52378464
Rb       0.00000000       0.00000000       5.17696970       0.00000000       0.00000000      -0.52378464
2
Properties=species:S:1:pos:R:3:forces:R:3 energy=-1.4316700252589685 pbc="F F F"
Rb       0.00000000       0.00000000       0.00000000       0.00000000       0.00000000       0.67505842
Rb       0.00000000       0.00000000       5.23575758       0.00000000       0.00000000      -0.67505842
2
Properties=species:S:1:pos:R:3:forces:R:3 energy=-1.3865060797575013 pbc="F F F"
Rb       0.00000000       0.00000000       0.00000000       0.00000000       0.00000000       0.86401820
Rb       0.00000000       0.00000000       5.29454545       0.00000000       0.00000000      -0.86401820
2
Properties=species:S:1:pos:R:3:forces:R:3 energy=-1.3304566613326947 pbc="F F F"
Rb       0.00000000       0.00000000       0.00000000       0.00000000       0.00000000       1.03364074
Rb       0.00000000       0.00000000       5.35333333       0.00000000       0.00000000      -1.03364074
2
Properties=species:S:1:pos:R:3:forces:R:3 energy=-1.2664577741696863 pbc="F F F"
Rb       0.00000000       0.00000000       0.00000000       0.00000000       0.00000000       1.12984443
Rb       0.00000000       0.00000000       5.41212121       0.00000000       0.00000000      -1.12984443
2
Properties=species:S:1:pos:R:3:forces:R:3 energy=-1.1987356646711333 pbc="F F F"
Rb       0.00000000       0.00000000       0.00000000       0.00000000       0.00000000       1.17203522
Rb       0.00000000       0.00000000       5.47090909       0.00000000       0.00000000      -1.17203522
2
Properties=species:S:1:pos:R:3:forces:R:3 energy=-1.1276385761777414 pbc="F F F"
Rb       0.00000000       0.00000000       0.00000000       0.00000000       0.00000000       1.26648724
Rb       0.00000000       0.00000000       5.52969697       0.00000000       0.00000000      -1.26648724
2
Properties=species:S:1:pos:R:3:forces:R:3 energy=-1.0465278754921985 pbc="F F F"
Rb       0.00000000       0.00000000       0.00000000       0.00000000       0.00000000       1.52444279
Rb       0.00000000       0.00000000       5.58848485       0.00000000       0.00000000      -1.52444279
2
Properties=species:S:1:pos:R:3:forces:R:3 energy=-0.9455839289117376 pbc="F F F"
Rb       0.00000000       0.00000000       0.00000000       0.00000000       0.00000000       1.91846621
Rb       0.00000000       0.00000000       5.64727273       0.00000000       0.00000000      -1.91846621
2
Properties=species:S:1:pos:R:3:forces:R:3 energy=-0.8228839819522271 pbc="F F F"
Rb       0.00000000       0.00000000       0.00000000       0.00000000       0.00000000       2.21469998
Rb       0.00000000       0.00000000       5.70606061       0.00000000       0.00000000      -2.21469998
2
Properties=species:S:1:pos:R:3:forces:R:3 energy=-0.6925798352333264 pbc="F F F"
Rb       0.00000000       0.00000000       0.00000000       0.00000000       0.00000000       2.13077497
Rb       0.00000000       0.00000000       5.76484848       0.00000000       0.00000000      -2.13077497
2
Properties=species:S:1:pos:R:3:forces:R:3 energy=-0.5812300637722003 pbc="F F F"
Rb       0.00000000       0.00000000       0.00000000       0.00000000       0.00000000       1.60185039
Rb       0.00000000       0.00000000       5.82363636       0.00000000       0.00000000      -1.60185039
2
Properties=species:S:1:pos:R:3:forces:R:3 energy=-0.5086678192614956 pbc="F F F"
Rb       0.00000000       0.00000000       0.00000000       0.00000000       0.00000000       0.86758906
Rb       0.00000000       0.00000000       5.88242424       0.00000000       0.00000000      -0.86758906
2
Properties=species:S:1:pos:R:3:forces:R:3 energy=-0.47642514922875806 pbc="F F F"
Rb       0.00000000       0.00000000       0.00000000       0.00000000       0.00000000       0.27077258
Rb       0.00000000       0.00000000       5.94121212       0.00000000       0.00000000      -0.27077258
2
Properties=species:S:1:pos:R:3:forces:R:3 energy=-0.4693161921769455 pbc="F F F"
Rb       0.00000000       0.00000000       0.00000000       0.00000000       0.00000000       0.04632730
Rb       0.00000000       0.00000000       6.00000000       0.00000000       0.00000000      -0.04632730
