2
Properties=species:S:1:pos:R:3:forces:R:3 energy=5650.202280910262 pbc="F F F"
Rb       0.00000000       0.00000000       0.00000000       0.00000000       0.00000000  -91175.64843750
Rb       0.00000000       0.00000000       0.18000000       0.00000000       0.00000000   91175.64843750
2
Properties=species:S:1:pos:R:3:forces:R:3 energy=2373.233042629012 pbc="F F F"
Rb       0.00000000       0.00000000       0.00000000       0.00000000       0.00000000  -32256.53906250
Rb       0.00000000       0.00000000       0.23878788       0.00000000       0.00000000   32256.53906250
2
Properties=species:S:1:pos:R:3:forces:R:3 energy=1122.6278180196368 pbc="F F F"
Rb       0.00000000       0.00000000       0.00000000       0.00000000       0.00000000  -13448.05175781
Rb       0.00000000       0.00000000       0.29757576       0.00000000       0.00000000   13448.05175781
2
Properties=species:S:1:pos:R:3:forces:R:3 energy=575.4647320821368 pbc="F F F"
Rb       0.00000000       0.00000000       0.00000000       0.00000000       0.00000000   -6215.99121094
Rb       0.00000000       0.00000000       0.35636364       0.00000000       0.00000000    6215.99121094
2
Properties=species:S:1:pos:R:3:forces:R:3 energy=314.1585797383869 pbc="F F F"
Rb       0.00000000       0.00000000       0.00000000       0.00000000       0.00000000   -3081.06518555
Rb       0.00000000       0.00000000       0.41515152       0.00000000       0.00000000    3081.06518555
2
Properties=species:S:1:pos:R:3:forces:R:3 energy=181.47080508176768 pbc="F F F"
Rb       0.00000000       0.00000000       0.00000000       0.00000000       0.00000000   -1608.69287109
Rb       0.00000000       0.00000000       0.47393939       0.00000000       0.00000000    1608.69287109
2
Properties=species:S:1:pos:R:3:forces:R:3 energy=110.82998171750987 pbc="F F F"
Rb       0.00000000       0.00000000       0.00000000       0.00000000       0.00000000    -875.99188232
Rb       0.00000000       0.00000000       0.53272727       0.00000000       0.00000000     875.99188232
2
Properties=species:S:1:pos:R:3:forces:R:3 energy=71.72407046579487 pbc="F F F"
Rb       0.00000000       0.00000000       0.00000000       0.00000000       0.00000000    -494.24035645
Rb       0.00000000       0.00000000       0.59151515       0.00000000       0.00000000     494.24035645
2
Properties=species:S:1:pos:R:3:forces:R:3 energy=49.350352207243944 pbc="F F F"
Rb       0.00000000       0.00000000       0.00000000       0.00000000       0.00000000    -287.23608398
Rb       0.00000000       0.00000000       0.65030303       0.00000000       0.00000000     287.23608398
2
Properties=species:S:1:pos:R:3:forces:R:3 energy=36.203993723589356 pbc="F F F"
Rb       0.00000000       0.00000000       0.00000000       0.00000000       0.00000000    -170.75134277
Rb       0.00000000       0.00000000       0.70909091       0.00000000       0.00000000     170.75134277
2
Properties=species:S:1:pos:R:3:forces:R:3 energy=28.334303791686573 pbc="F F F"
Rb       0.00000000       0.00000000       0.00000000       0.00000000       0.00000000    -102.86528778
Rb       0.00000000       0.00000000       0.76787879       0.00000000       0.00000000     102.86528778
2
Properties=species:S:1:pos:R:3:forces:R:3 energy=23.5849332309906 pbc="F F F"
Rb       0.00000000       0.00000000       0.00000000       0.00000000       0.00000000     -62.07382202
Rb       0.00000000       0.00000000       0.82666667       0.00000000       0.00000000      62.07382202
2
Properties=species:S:1:pos:R:3:forces:R:3 energy=20.72856041674558 pbc="F F F"
Rb       0.00000000       0.00000000       0.00000000       0.00000000       0.00000000     -37.13474655
Rb       0.00000000       0.00000000       0.88545455       0.00000000       0.00000000      37.13474655
2
Properties=species:S:1:pos:R:3:forces:R:3 energy=19.02685641840351 pbc="F F F"
Rb       0.00000000       0.00000000       0.00000000       0.00000000       0.00000000     -22.06916237
Rb       0.00000000       0.00000000       0.94424242       0.00000000       0.00000000      22.06916237
2
Properties=species:S:1:pos:R:3:forces:R:3 energy=18.008400951046283 pbc="F F F"
Rb       0.00000000       0.00000000       0.00000000       0.00000000       0.00000000     -13.43055439
Rb       0.00000000       0.00000000       1.00303030       0.00000000       0.00000000      13.43055439
2
Properties=species:S:1:pos:R:3:forces:R:3 energy=17.369706236963935 pbc="F F F"
Rb       0.00000000       0.00000000       0.00000000       0.00000000       0.00000000      -8.79372501
Rb       0.00000000       0.00000000       1.06181818       0.00000000       0.00000000       8.79372501
2
Properties=species:S:1:pos:R:3:forces:R:3 energy=16.932027014300626 pbc="F F F"
Rb       0.00000000       0.00000000       0.00000000       0.00000000       0.00000000      -6.35371542
Rb       0.00000000       0.00000000       1.12060606       0.00000000       0.00000000       6.35371542
2
Properties=species:S:1:pos:R:3:forces:R:3 energy=16.59893536399198 pbc="F F F"
Rb       0.00000000       0.00000000       0.00000000       0.00000000       0.00000000      -5.14991903
Rb       0.00000000       0.00000000       1.17939394       0.00000000       0.00000000       5.14991903
2
Properties=species:S:1:pos:R:3:forces:R:3 energy=16.306750648321664 pbc="F F F"
Rb       0.00000000       0.00000000       0.00000000       0.00000000       0.00000000      -4.96310234
Rb       0.00000000       0.00000000       1.23818182       0.00000000       0.00000000       4.96310234
2
Properties=species:S:1:pos:R:3:forces:R:3 energy=15.994376677467336 pbc="F F F"
Rb       0.00000000       0.00000000       0.00000000       0.00000000       0.00000000      -5.84622574
Rb       0.00000000       0.00000000       1.29696970       0.00000000       0.00000000       5.84622574
2
Properties=species:S:1:pos:R:3:forces:R:3 energy=15.598336896848556 pbc="F F F"
Rb       0.00000000       0.00000000       0.00000000       0.00000000       0.00000000      -7.79555035
Rb       0.00000000       0.00000000       1.35575758       0.00000000       0.00000000       7.79555035
2
Properties=species:S:1:pos:R:3:forces:R:3 energy=15.060685109245716 pbc="F F F"
Rb       0.00000000       0.00000000       0.00000000       0.00000000       0.00000000     -10.60921860
Rb       0.00000000       0.00000000       1.41454545       0.00000000       0.00000000      10.60921860
2
Properties=species:S:1:pos:R:3:forces:R:3 energy=14.342647787480153 pbc="F F F"
Rb       0.00000000       0.00000000       0.00000000       0.00000000       0.00000000     -13.84339905
Rb       0.00000000       0.00000000       1.47333333       0.00000000       0.00000000      13.84339905
2
Properties=species:S:1:pos:R:3:forces:R:3 energy=13.435773479263343 pbc="F F F"
Rb       0.00000000       0.00000000       0.00000000       0.00000000       0.00000000     -16.94200706
Rb       0.00000000       0.00000000       1.53212121       0.00000000       0.00000000      16.94200706
2
Properties=species:S:1:pos:R:3:forces:R:3 energy=12.362587032529685 pbc="F F F"
Rb       0.00000000       0.00000000       0.00000000       0.00000000       0.00000000     -19.43760872
Rb       0.00000000       0.00000000       1.59090909       0.00000000       0.00000000      19.43760872
2
Properties=species:S:1:pos:R:3:forces:R:3 energy=11.168431857414406 pbc="F F F"
Rb       0.00000000       0.00000000       0.00000000       0.00000000       0.00000000     -21.01703644
Rb       0.00000000       0.00000000       1.64969697       0.00000000       0.00000000      21.01703644
2
Properties=species:S:1:pos:R:3:forces:R:3 energy=9.912790545803421 pbc="F F F"
Rb       0.00000000       0.00000000       0.00000000       0.00000000       0.00000000     -21.51559067
Rb       0.00000000       0.00000000       1.70848485       0.00000000       0.00000000      21.51559067
2
Properties=species:S:1:pos:R:3:forces:R:3 energy=8.65999226245862 pbc="F F F"
Rb       0.00000000       0.00000000       0.00000000       0.00000000       0.00000000     -20.93536377
Rb       0.00000000       0.00000000       1.76727273       0.00000000       0.00000000      20.93536377
2
Properties=species:S:1:pos:R:3:forces:R:3 energy=7.468999846763468 pbc="F F F"
Rb       0.00000000       0.00000000       0.00000000       0.00000000       0.00000000     -19.45622635
Rb       0.00000000       0.00000000       1.82606061       0.00000000       0.00000000      19.45622635
2
Properties=species:S:1:pos:R:3:forces:R:3 energy=6.383715245963063 pbc="F F F"
Rb       0.00000000       0.00000000       0.00000000       0.00000000       0.00000000     -17.40186691
Rb       0.00000000       0.00000000       1.88484848       0.00000000       0.00000000      17.40186691
2
Properties=species:S:1:pos:R:3:forces:R:3 energy=5.426667604277958 pbc="F F F"
Rb       0.00000000       0.00000000       0.00000000       0.00000000       0.00000000     -15.15729713
Rb       0.00000000       0.00000000       1.94363636       0.00000000       0.00000000      15.15729713
2
Properties=species:S:1:pos:R:3:forces:R:3 energy=4.5985321579702125 pbc="F F F"
Rb       0.00000000       0.00000000       0.00000000       0.00000000       0.00000000     -13.06357574
Rb       0.00000000       0.00000000       2.00242424       0.00000000       0.00000000      13.06357574
2
Properties=species:S:1:pos:R:3:forces:R:3 energy=3.8838594100405337 pbc="F F F"
Rb       0.00000000       0.00000000       0.00000000       0.00000000       0.00000000     -11.31253719
Rb       0.00000000       0.00000000       2.06121212       0.00000000       0.00000000      11.31253719
2
Properties=species:S:1:pos:R:3:forces:R:3 energy=3.2615708087565967 pbc="F F F"
Rb       0.00000000       0.00000000       0.00000000       0.00000000       0.00000000      -9.90956211
Rb       0.00000000       0.00000000       2.12000000       0.00000000       0.00000000       9.90956211
2
Properties=species:S:1:pos:R:3:forces:R:3 energy=2.7136734203885413 pbc="F F F"
Rb       0.00000000       0.00000000       0.00000000       0.00000000       0.00000000      -8.76547146
Rb       0.00000000       0.00000000       2.17878788       0.00000000       0.00000000       8.76547146
2
Properties=species:S:1:pos:R:3:forces:R:3 energy=2.2274838961309213 pbc="F F F"
Rb       0.00000000       0.00000000       0.00000000       0.00000000       0.00000000      -7.80026770
Rb       0.00000000       0.00000000       2.23757576       0.00000000       0.00000000       7.80026770
2
Properties=species:S:1:pos:R:3:forces:R:3 energy=1.7939093565220043 pbc="F F F"
Rb       0.00000000       0.00000000       0.00000000       0.00000000       0.00000000      -6.97065592
Rb       0.00000000       0.00000000       2.29636364       0.00000000       0.00000000       6.97065592
2
Properties=species:S:1:pos:R:3:forces:R:3 energy=1.4056578184212123 pbc="F F F"
Rb       0.00000000       0.00000000       0.00000000       0.00000000       0.00000000      -6.25583267
Rb       0.00000000       0.00000000       2.35515152       0.00000000       0.00000000       6.25583267
2
Properties=species:S:1:pos:R:3:forces:R:3 energy=1.0564025473928371 pbc="F F F"
Rb       0.00000000       0.00000000       0.00000000       0.00000000       0.00000000      -5.64158440
Rb       0.00000000       0.00000000       2.41393939       0.00000000       0.00000000       5.64158440
2
Properties=species:S:1:pos:R:3:forces:R:3 energy=0.7406643854659661 pbc="F F F"
Rb       0.00000000       0.00000000       0.00000000       0.00000000       0.00000000      -5.11292934
Rb       0.00000000       0.00000000       2.47272727       0.00000000       0.00000000       5.11292934
2
Properties=species:S:1:pos:R:3:forces:R:3 energy=0.45392066465959696 pbc="F F F"
Rb       0.00000000       0.00000000       0.00000000       0.00000000       0.00000000      -4.65186739
Rb       0.00000000       0.00000000       2.53151515       0.00000000       0.00000000       4.65186739
2
Properties=species:S:1:pos:R:3:forces:R:3 energy=0.19279675888792375 pbc="F F F"
Rb       0.00000000       0.00000000       0.00000000       0.00000000       0.00000000      -4.23787355
Rb       0.00000000       0.00000000       2.59030303       0.00000000       0.00000000       4.23787355
2
Properties=species:S:1:pos:R:3:forces:R:3 energy=-0.04488237515296575 pbc="F F F"
Rb       0.00000000       0.00000000       0.00000000       0.00000000       0.00000000      -3.85124469
Rb       0.00000000       0.00000000       2.64909091       0.00000000       0.00000000       3.85124469
2
Properties=species:S:1:pos:R:3:forces:R:3 energy=-0.26026987943116564 pbc="F F F"
Rb       0.00000000       0.00000000       0.00000000       0.00000000       0.00000000      -3.47780204
Rb       0.00000000       0.00000000       2.70787879       0.00000000       0.00000000       3.47780204
2
Properties=species:S:1:pos:R:3:forces:R:3 energy=-0.4539307971836273 pbc="F F F"
Rb       0.00000000       0.00000000       0.00000000       0.00000000       0.00000000      -3.11193037
Rb       0.00000000       0.00000000       2.76666667       0.00000000       0.00000000       3.11193037
2
Properties=species:S:1:pos:R:3:forces:R:3 energy=-0.6263576327946102 pbc="F F F"
Rb       0.00000000       0.00000000       0.00000000       0.00000000       0.00000000      -2.75643158
Rb       0.00000000       0.00000000       2.82545455       0.00000000       0.00000000       2.75643158
2
Properties=species:S:1:pos:R:3:forces:R:3 energy=-0.7783883246154366 pbc="F F F"
Rb       0.00000000       0.00000000       0.00000000       0.00000000       0.00000000      -2.41971564
Rb       0.00000000       0.00000000       2.88424242       0.00000000       0.00000000       2.41971564
2
Properties=species:S:1:pos:R:3:forces:R:3 energy=-0.9114212309986407 pbc="F F F"
Rb       0.00000000       0.00000000       0.00000000       0.00000000       0.00000000      -2.11164975
Rb       0.00000000       0.00000000       2.94303030       0.00000000       0.00000000       2.11164975
2
Properties=species:S:1:pos:R:3:forces:R:3 energy=-1.0273778805628062 pbc="F F F"
Rb       0.00000000       0.00000000       0.00000000       0.00000000       0.00000000      -1.83971560
Rb       0.00000000       0.00000000       3.00181818       0.00000000       0.00000000       1.83971560
2
Properties=species:S:1:pos:R:3:forces:R:3 energy=-1.1284926730425873 pbc="F F F"
Rb       0.00000000       0.00000000       0.00000000       0.00000000       0.00000000      -1.60671020
Rb       0.00000000       0.00000000       3.06060606       0.00000000       0.00000000       1.60671020
2
Properties=species:S:1:pos:R:3:forces:R:3 energy=-1.2170113251355898 pbc="F F F"
Rb       0.00000000       0.00000000       0.00000000       0.00000000       0.00000000      -1.41047633
Rb       0.00000000       0.00000000       3.11939394       0.00000000       0.00000000       1.41047633
2
Properties=species:S:1:pos:R:3:forces:R:3 energy=-1.294936073317246 pbc="F F F"
Rb       0.00000000       0.00000000       0.00000000       0.00000000       0.00000000      -1.24508500
Rb       0.00000000       0.00000000       3.17818182       0.00000000       0.00000000       1.24508500
2
Properties=species:S:1:pos:R:3:forces:R:3 energy=-1.3638557330790027 pbc="F F F"
Rb       0.00000000       0.00000000       0.00000000       0.00000000       0.00000000      -1.10281730
Rb       0.00000000       0.00000000       3.23696970       0.00000000       0.00000000       1.10281730
2
Properties=species:S:1:pos:R:3:forces:R:3 energy=-1.4249037578492456 pbc="F F F"
Rb       0.00000000       0.00000000       0.00000000       0.00000000       0.00000000      -0.97607797
Rb       0.00000000       0.00000000       3.29575758       0.00000000       0.00000000       0.97607797
2
Properties=species:S:1:pos:R:3:forces:R:3 energy=-1.4788024656397214 pbc="F F F"
Rb       0.00000000       0.00000000       0.00000000       0.00000000       0.00000000      -0.85874802
Rb       0.00000000       0.00000000       3.35454545       0.00000000       0.00000000       0.85874802
2
Properties=species:S:1:pos:R:3:forces:R:3 energy=-1.525974857359136 pbc="F F F"
Rb       0.00000000       0.00000000       0.00000000       0.00000000       0.00000000      -0.74676943
Rb       0.00000000       0.00000000       3.41333333       0.00000000       0.00000000       0.74676943
2
Properties=species:S:1:pos:R:3:forces:R:3 energy=-1.566671004002657 pbc="F F F"
Rb       0.00000000       0.00000000       0.00000000       0.00000000       0.00000000      -0.63826233
Rb       0.00000000       0.00000000       3.47212121       0.00000000       0.00000000       0.63826233
2
Properties=species:S:1:pos:R:3:forces:R:3 energy=-1.601089411212141 pbc="F F F"
Rb       0.00000000       0.00000000       0.00000000       0.00000000       0.00000000      -0.53340626
Rb       0.00000000       0.00000000       3.53090909       0.00000000       0.00000000       0.53340626
2
Properties=species:S:1:pos:R:3:forces:R:3 energy=-1.6294924392109977 pbc="F F F"
Rb       0.00000000       0.00000000       0.00000000       0.00000000       0.00000000      -0.43399662
Rb       0.00000000       0.00000000       3.58969697       0.00000000       0.00000000       0.43399662
2
Properties=species:S:1:pos:R:3:forces:R:3 energy=-1.6522739023909194 pbc="F F F"
Rb       0.00000000       0.00000000       0.00000000       0.00000000       0.00000000      -0.34257329
Rb       0.00000000       0.00000000       3.64848485       0.00000000       0.00000000       0.34257329
2
Properties=species:S:1:pos:R:3:forces:R:3 energy=-1.6699700824999413 pbc="F F F"
Rb       0.00000000       0.00000000       0.00000000       0.00000000       0.00000000      -0.26128614
Rb       0.00000000       0.00000000       3.70727273       0.00000000       0.00000000       0.26128614
2
Properties=species:S:1:pos:R:3:forces:R:3 energy=-1.6832125629454668 pbc="F F F"
Rb       0.00000000       0.00000000       0.00000000       0.00000000       0.00000000      -0.19105053
Rb       0.00000000       0.00000000       3.76606061       0.00000000       0.00000000       0.19105053
2
Properties=species:S:1:pos:R:3:forces:R:3 energy=-1.6926416016546308 pbc="F F F"
Rb       0.00000000       0.00000000       0.00000000       0.00000000       0.00000000      -0.13139307
Rb       0.00000000       0.00000000       3.82484848       0.00000000       0.00000000       0.13139307
2
Properties=species:S:1:pos:R:3:forces:R:3 energy=-1.6988416051705602 pbc="F F F"
Rb       0.00000000       0.00000000       0.00000000       0.00000000       0.00000000      -0.08094146
Rb       0.00000000       0.00000000       3.88363636       0.00000000       0.00000000       0.08094146
2
Properties=species:S:1:pos:R:3:forces:R:3 energy=-1.7023084379645903 pbc="F F F"
Rb       0.00000000       0.00000000       0.00000000       0.00000000       0.00000000      -0.03816503
Rb       0.00000000       0.00000000       3.94242424       0.00000000       0.00000000       0.03816503
2
Properties=species:S:1:pos:R:3:forces:R:3 energy=-1.7034551741605146 pbc="F F F"
Rb       0.00000000       0.00000000       0.00000000       0.00000000       0.00000000      -0.00184847
Rb       0.00000000       0.00000000       4.00121212       0.00000000       0.00000000       0.00184847
2
Properties=species:S:1:pos:R:3:forces:R:3 energy=-1.7026355239119093 pbc="F F F"
Rb       0.00000000       0.00000000       0.00000000       0.00000000       0.00000000       0.02886352
Rb       0.00000000       0.00000000       4.06000000       0.00000000       0.00000000      -0.02886352
2
Properties=species:S:1:pos:R:3:forces:R:3 energy=-1.7001565431987287 pbc="F F F"
Rb       0.00000000       0.00000000       0.00000000       0.00000000       0.00000000       0.05471821
Rb       0.00000000       0.00000000       4.11878788       0.00000000       0.00000000      -0.05471821
2
Properties=species:S:1:pos:R:3:forces:R:3 energy=-1.6962797878264089 pbc="F F F"
Rb       0.00000000       0.00000000       0.00000000       0.00000000       0.00000000       0.07660347
Rb       0.00000000       0.00000000       4.17757576       0.00000000       0.00000000      -0.07660347
2
Properties=species:S:1:pos:R:3:forces:R:3 energy=-1.6912069630497706 pbc="F F F"
Rb       0.00000000       0.00000000       0.00000000       0.00000000       0.00000000       0.09558222
Rb       0.00000000       0.00000000       4.23636364       0.00000000       0.00000000      -0.09558222
2
Properties=species:S:1:pos:R:3:forces:R:3 energy=-1.6850775150527508 pbc="F F F"
Rb       0.00000000       0.00000000       0.00000000       0.00000000       0.00000000       0.11271995
Rb       0.00000000       0.00000000       4.29515152       0.00000000       0.00000000      -0.11271995
2
Properties=species:S:1:pos:R:3:forces:R:3 energy=-1.6779735828138969 pbc="F F F"
Rb       0.00000000       0.00000000       0.00000000       0.00000000       0.00000000       0.12884910
Rb       0.00000000       0.00000000       4.35393939       0.00000000       0.00000000      -0.12884910
2
Properties=species:S:1:pos:R:3:forces:R:3 energy=-1.66993832184328 pbc="F F F"
Rb       0.00000000       0.00000000       0.00000000       0.00000000       0.00000000       0.14443193
Rb       0.00000000       0.00000000       4.41272727       0.00000000       0.00000000      -0.14443193
2
Properties=species:S:1:pos:R:3:forces:R:3 energy=-1.660999491895311 pbc="F F F"
Rb       0.00000000       0.00000000       0.00000000       0.00000000       0.00000000       0.15961261
Rb       0.00000000       0.00000000       4.47151515       0.00000000       0.00000000      -0.15961261
2
Properties=species:S:1:pos:R:3:forces:R:3 energy=-1.6511791379767384 pbc="F F F"
Rb       0.00000000       0.00000000       0.00000000       0.00000000       0.00000000       0.17442586
Rb       0.00000000       0.00000000       4.53030303       0.00000000       0.00000000      -0.17442586
2
Properties=species:S:1:pos:R:3:forces:R:3 energy=-1.640495736019349 pbc="F F F"
Rb       0.00000000       0.00000000       0.00000000       0.00000000       0.00000000       0.18904306
Rb       0.00000000       0.00000000       4.58909091       0.00000000       0.00000000      -0.18904306
2
Properties=species:S:1:pos:R:3:forces:R:3 energy=-1.628947585801037 pbc="F F F"
Rb       0.00000000       0.00000000       0.00000000       0.00000000       0.00000000       0.20392223
Rb       0.00000000       0.00000000       4.64787879       0.00000000       0.00000000      -0.20392223
2
Properties=species:S:1:pos:R:3:forces:R:3 energy=-1.6165009550242868 pbc="F F F"
Rb       0.00000000       0.00000000       0.00000000       0.00000000       0.00000000       0.21972109
Rb       0.00000000       0.00000000       4.70666667       0.00000000       0.00000000      -0.21972109
2
Properties=species:S:1:pos:R:3:forces:R:3 energy=-1.6030844182943078 pbc="F F F"
Rb       0.00000000       0.00000000       0.00000000       0.00000000       0.00000000       0.23699537
Rb       0.00000000       0.00000000       4.76545455       0.00000000       0.00000000      -0.23699537
2
Properties=species:S:1:pos:R:3:forces:R:3 energy=-1.588602311179395 pbc="F F F"
Rb       0.00000000       0.00000000       0.00000000       0.00000000       0.00000000       0.25591242
Rb       0.00000000       0.00000000       4.82424242       0.00000000       0.00000000      -0.25591242
2
Properties=species:S:1:pos:R:3:forces:R:3 energy=-1.5729660248920094 pbc="F F F"
Rb       0.00000000       0.00000000       0.00000000       0.00000000       0.00000000       0.27640271
Rb       0.00000000       0.00000000       4.88303030       0.00000000       0.00000000      -0.27640271
2
Properties=species:S:1:pos:R:3:forces:R:3 energy=-1.556061545472326 pbc="F F F"
Rb       0.00000000       0.00000000       0.00000000       0.00000000       0.00000000       0.29916623
Rb       0.00000000       0.00000000       4.94181818       0.00000000       0.00000000      -0.29916623
2
Properties=species:S:1:pos:R:3:forces:R:3 energy=-1.5376945440916447 pbc="F F F"
Rb       0.00000000       0.00000000       0.00000000       0.00000000       0.00000000       0.32692787
Rb       0.00000000       0.00000000       5.00060606       0.00000000       0.00000000      -0.32692787
2
Properties=species:S:1:pos:R:3:forces:R:3 energy=-1.5174123937899402 pbc="F F F"
Rb       0.00000000       0.00000000       0.00000000       0.00000000       0.00000000       0.36548918
Rb       0.00000000       0.00000000       5.05939394       0.00000000       0.00000000      -0.36548918
2
Properties=species:S:1:pos:R:3:forces:R:3 energy=-1.4943083560050263 pbc="F F F"
Rb       0.00000000       0.00000000       0.00000000       0.00000000       0.00000000       0.42539501
Rb       0.00000000       0.00000000       5.11818182       0.00000000       0.00000000      -0.42539501
2
Properties=species:S:1:pos:R:3:forces:R:3 energy=-1.4666442537342028 pbc="F F F"
Rb       0.00000000       0.00000000       0.00000000       0.00000000       0.00000000       0.52378684
Rb       0.00000000       0.00000000       5.17696970       0.00000000       0.00000000      -0.52378684
2
Properties=species:S:1:pos:R:3:forces:R:3 energy=-1.4316697868403894 pbc="F F F"
Rb       0.00000000       0.00000000       0.00000000       0.00000000       0.00000000       0.67505777
Rb       0.00000000       0.00000000       5.23575758       0.00000000       0.00000000      -0.67505777
2
Properties=species:S:1:pos:R:3:forces:R:3 energy=-1.3865030868539738 pbc="F F F"
Rb       0.00000000       0.00000000       0.00000000       0.00000000       0.00000000       0.86403012
Rb       0.00000000       0.00000000       5.29454545       0.00000000       0.00000000      -0.86403012
2
Properties=species:S:1:pos:R:3:forces:R:3 energy=-1.3304562225094023 pbc="F F F"
Rb       0.00000000       0.00000000       0.00000000       0.00000000       0.00000000       1.03364980
Rb       0.00000000       0.00000000       5.35333333       0.00000000       0.00000000      -1.03364980
2
Properties=species:S:1:pos:R:3:forces:R:3 energy=-1.2664677877500086 pbc="F F F"
Rb       0.00000000       0.00000000       0.00000000       0.00000000       0.00000000       1.12984896
Rb       0.00000000       0.00000000       5.41212121       0.00000000       0.00000000      -1.12984896
2
Properties=species:S:1:pos:R:3:forces:R:3 energy=-1.1987355454618438 pbc="F F F"
Rb       0.00000000       0.00000000       0.00000000       0.00000000       0.00000000       1.17204225
Rb       0.00000000       0.00000000       5.47090909       0.00000000       0.00000000      -1.17204225
2
Properties=species:S:1:pos:R:3:forces:R:3 energy=-1.1276388145963205 pbc="F F F"
Rb       0.00000000       0.00000000       0.00000000       0.00000000       0.00000000       1.26652265
Rb       0.00000000       0.00000000       5.52969697       0.00000000       0.00000000      -1.26652265
2
Properties=species:S:1:pos:R:3:forces:R:3 energy=-1.046527994701488 pbc="F F F"
Rb       0.00000000       0.00000000       0.00000000       0.00000000       0.00000000       1.52445197
Rb       0.00000000       0.00000000       5.58848485       0.00000000       0.00000000      -1.52445197
2
Properties=species:S:1:pos:R:3:forces:R:3 energy=-0.9456603953353401 pbc="F F F"
Rb       0.00000000       0.00000000       0.00000000       0.00000000       0.00000000       1.91791248
Rb       0.00000000       0.00000000       5.64727273       0.00000000       0.00000000      -1.91791248
2
Properties=species:S:1:pos:R:3:forces:R:3 energy=-0.8228839033406494 pbc="F F F"
Rb       0.00000000       0.00000000       0.00000000       0.00000000       0.00000000       2.21472144
Rb       0.00000000       0.00000000       5.70606061       0.00000000       0.00000000      -2.21472144
2
Properties=species:S:1:pos:R:3:forces:R:3 energy=-0.692579847904615 pbc="F F F"
Rb       0.00000000       0.00000000       0.00000000       0.00000000       0.00000000       2.13074374
Rb       0.00000000       0.00000000       5.76484848       0.00000000       0.00000000      -2.13074374
2
Properties=species:S:1:pos:R:3:forces:R:3 energy=-0.5811187222957599 pbc="F F F"
Rb       0.00000000       0.00000000       0.00000000       0.00000000       0.00000000       1.60188055
Rb       0.00000000       0.00000000       5.82363636       0.00000000       0.00000000      -1.60188055
2
Properties=species:S:1:pos:R:3:forces:R:3 energy=-0.5086678002545628 pbc="F F F"
Rb       0.00000000       0.00000000       0.00000000       0.00000000       0.00000000       0.86774909
Rb       0.00000000       0.00000000       5.88242424       0.00000000       0.00000000      -0.86774909
2
Properties=species:S:1:pos:R:3:forces:R:3 energy=-0.47642515556440235 pbc="F F F"
Rb       0.00000000       0.00000000       0.00000000       0.00000000       0.00000000       0.27064386
Rb       0.00000000       0.00000000       5.94121212       0.00000000       0.00000000      -0.27064386
2
Properties=species:S:1:pos:R:3:forces:R:3 energy=-0.4693161921769455 pbc="F F F"
Rb       0.00000000       0.00000000       0.00000000       0.00000000       0.00000000       0.04632730
Rb       0.00000000       0.00000000       6.00000000       0.00000000       0.00000000      -0.04632730
