2
Properties=species:S:1:pos:R:3:forces:R:3 energy=26177.816538722764 pbc="F F F"
Rb       0.00000000       0.00000000       0.00000000       0.00000000       0.00000000 -610259.37500000
Rb       0.00000000       0.00000000       0.10000000       0.00000000       0.00000000  610259.37500000
2
Properties=species:S:1:pos:R:3:forces:R:3 energy=7951.798960597762 pbc="F F F"
Rb       0.00000000       0.00000000       0.00000000       0.00000000       0.00000000 -138365.23437500
Rb       0.00000000       0.00000000       0.15959596       0.00000000       0.00000000  138365.23437500
2
Properties=species:S:1:pos:R:3:forces:R:3 energy=3118.534800441512 pbc="F F F"
Rb       0.00000000       0.00000000       0.00000000       0.00000000       0.00000000  -44598.21093750
Rb       0.00000000       0.00000000       0.21919192       0.00000000       0.00000000   44598.21093750
2
Properties=species:S:1:pos:R:3:forces:R:3 energy=1411.8397320821368 pbc="F F F"
Rb       0.00000000       0.00000000       0.00000000       0.00000000       0.00000000  -17549.10742188
Rb       0.00000000       0.00000000       0.27878788       0.00000000       0.00000000   17549.10742188
2
Properties=species:S:1:pos:R:3:forces:R:3 energy=700.8878277852618 pbc="F F F"
Rb       0.00000000       0.00000000       0.00000000       0.00000000       0.00000000   -7803.57031250
Rb       0.00000000       0.00000000       0.33838384       0.00000000       0.00000000    7803.57031250
2
Properties=species:S:1:pos:R:3:forces:R:3 energy=372.67634096885564 pbc="F F F"
Rb       0.00000000       0.00000000       0.00000000       0.00000000       0.00000000   -3759.60229492
Rb       0.00000000       0.00000000       0.39797980       0.00000000       0.00000000    3759.60229492
2
Properties=species:S:1:pos:R:3:forces:R:3 energy=210.2503766149708 pbc="F F F"
Rb       0.00000000       0.00000000       0.00000000       0.00000000       0.00000000   -1918.90112305
Rb       0.00000000       0.00000000       0.45757576       0.00000000       0.00000000    1918.90112305
2
Properties=species:S:1:pos:R:3:forces:R:3 energy=125.58239260618174 pbc="F F F"
Rb       0.00000000       0.00000000       0.00000000       0.00000000       0.00000000   -1025.05090332
Rb       0.00000000       0.00000000       0.51717172       0.00000000       0.00000000    1025.05090332
2
Properties=species:S:1:pos:R:3:forces:R:3 energy=79.54868594431049 pbc="F F F"
Rb       0.00000000       0.00000000       0.00000000       0.00000000       0.00000000    -568.82714844
Rb       0.00000000       0.00000000       0.57676768       0.00000000       0.00000000     568.82714844
2
Properties=species:S:1:pos:R:3:forces:R:3 energy=53.61769763571074 pbc="F F F"
Rb       0.00000000       0.00000000       0.00000000       0.00000000       0.00000000    -325.91986084
Rb       0.00000000       0.00000000       0.63636364       0.00000000       0.00000000     325.91986084
2
Properties=species:S:1:pos:R:3:forces:R:3 energy=38.5796422205406 pbc="F F F"
Rb       0.00000000       0.00000000       0.00000000       0.00000000       0.00000000    -191.49365234
Rb       0.00000000       0.00000000       0.69595960       0.00000000       0.00000000     191.49365234
2
Properties=species:S:1:pos:R:3:forces:R:3 energy=29.671345644961058 pbc="F F F"
Rb       0.00000000       0.00000000       0.00000000       0.00000000       0.00000000    -114.33171082
Rb       0.00000000       0.00000000       0.75555556       0.00000000       0.00000000     114.33171082
2
Properties=species:S:1:pos:R:3:forces:R:3 energy=24.336438125894066 pbc="F F F"
Rb       0.00000000       0.00000000       0.00000000       0.00000000       0.00000000     -68.55914307
Rb       0.00000000       0.00000000       0.81515152       0.00000000       0.00000000      68.55914307
2
Properties=species:S:1:pos:R:3:forces:R:3 energy=21.14558121130725 pbc="F F F"
Rb       0.00000000       0.00000000       0.00000000       0.00000000       0.00000000     -40.81197357
Rb       0.00000000       0.00000000       0.87474747       0.00000000       0.00000000      40.81197357
2
Properties=species:S:1:pos:R:3:forces:R:3 energy=19.255124083329513 pbc="F F F"
Rb       0.00000000       0.00000000       0.00000000       0.00000000       0.00000000     -24.08014679
Rb       0.00000000       0.00000000       0.93434343       0.00000000       0.00000000      24.08014679
2
Properties=species:S:1:pos:R:3:forces:R:3 energy=18.13505461597529 pbc="F F F"
Rb       0.00000000       0.00000000       0.00000000       0.00000000       0.00000000     -14.45051289
Rb       0.00000000       0.00000000       0.99393939       0.00000000       0.00000000      14.45051289
2
Properties=species:S:1:pos:R:3:forces:R:3 energy=17.444527701212348 pbc="F F F"
Rb       0.00000000       0.00000000       0.00000000       0.00000000       0.00000000      -9.28048611
Rb       0.00000000       0.00000000       1.05353535       0.00000000       0.00000000       9.28048611
2
Properties=species:S:1:pos:R:3:forces:R:3 energy=16.980351589758097 pbc="F F F"
Rb       0.00000000       0.00000000       0.00000000       0.00000000       0.00000000      -6.58425570
Rb       0.00000000       0.00000000       1.11313131       0.00000000       0.00000000       6.58425570
2
Properties=species:S:1:pos:R:3:forces:R:3 energy=16.633538473385 pbc="F F F"
Rb       0.00000000       0.00000000       0.00000000       0.00000000       0.00000000      -5.23538160
Rb       0.00000000       0.00000000       1.17272727       0.00000000       0.00000000       5.23538160
2
Properties=species:S:1:pos:R:3:forces:R:3 energy=16.335736612823226 pbc="F F F"
Rb       0.00000000       0.00000000       0.00000000       0.00000000       0.00000000      -4.93479395
Rb       0.00000000       0.00000000       1.23232323       0.00000000       0.00000000       4.93479395
2
Properties=species:S:1:pos:R:3:forces:R:3 energy=16.02358198547776 pbc="F F F"
Rb       0.00000000       0.00000000       0.00000000       0.00000000       0.00000000      -5.72738361
Rb       0.00000000       0.00000000       1.29191919       0.00000000       0.00000000       5.72738361
2
Properties=species:S:1:pos:R:3:forces:R:3 energy=15.631066985132419 pbc="F F F"
Rb       0.00000000       0.00000000       0.00000000       0.00000000       0.00000000      -7.62207985
Rb       0.00000000       0.00000000       1.35151515       0.00000000       0.00000000       7.62207985
2
Properties=species:S:1:pos:R:3:forces:R:3 energy=15.096842703022743 pbc="F F F"
Rb       0.00000000       0.00000000       0.00000000       0.00000000       0.00000000     -10.42805195
Rb       0.00000000       0.00000000       1.41111111       0.00000000       0.00000000      10.42805195
2
Properties=species:S:1:pos:R:3:forces:R:3 energy=14.37880538125718 pbc="F F F"
Rb       0.00000000       0.00000000       0.00000000       0.00000000       0.00000000     -13.69776249
Rb       0.00000000       0.00000000       1.47070707       0.00000000       0.00000000      13.69776249
2
Properties=species:S:1:pos:R:3:forces:R:3 energy=13.466518020788271 pbc="F F F"
Rb       0.00000000       0.00000000       0.00000000       0.00000000       0.00000000     -16.85322571
Rb       0.00000000       0.00000000       1.53030303       0.00000000       0.00000000      16.85322571
2
Properties=species:S:1:pos:R:3:forces:R:3 energy=12.382211734693138 pbc="F F F"
Rb       0.00000000       0.00000000       0.00000000       0.00000000       0.00000000     -19.40179825
Rb       0.00000000       0.00000000       1.58989899       0.00000000       0.00000000      19.40179825
2
Properties=species:S:1:pos:R:3:forces:R:3 energy=11.172681430168312 pbc="F F F"
Rb       0.00000000       0.00000000       0.00000000       0.00000000       0.00000000     -21.01340675
Rb       0.00000000       0.00000000       1.64949495       0.00000000       0.00000000      21.01340675
2
Properties=species:S:1:pos:R:3:forces:R:3 energy=9.899738567028642 pbc="F F F"
Rb       0.00000000       0.00000000       0.00000000       0.00000000       0.00000000     -21.51491928
Rb       0.00000000       0.00000000       1.70909091       0.00000000       0.00000000      21.51491928
2
Properties=species:S:1:pos:R:3:forces:R:3 energy=8.630401674776099 pbc="F F F"
Rb       0.00000000       0.00000000       0.00000000       0.00000000       0.00000000     -20.90928078
Rb       0.00000000       0.00000000       1.76868687       0.00000000       0.00000000      20.90928078
2
Properties=species:S:1:pos:R:3:forces:R:3 energy=7.425855180282046 pbc="F F F"
Rb       0.00000000       0.00000000       0.00000000       0.00000000       0.00000000     -19.38670158
Rb       0.00000000       0.00000000       1.82828283       0.00000000       0.00000000      19.38670158
2
Properties=species:S:1:pos:R:3:forces:R:3 energy=6.331158311406712 pbc="F F F"
Rb       0.00000000       0.00000000       0.00000000       0.00000000       0.00000000     -17.28753281
Rb       0.00000000       0.00000000       1.88787879       0.00000000       0.00000000      17.28753281
2
Properties=species:S:1:pos:R:3:forces:R:3 energy=5.368763451091651 pbc="F F F"
Rb       0.00000000       0.00000000       0.00000000       0.00000000       0.00000000     -15.01289940
Rb       0.00000000       0.00000000       1.94747475       0.00000000       0.00000000      15.01289940
2
Properties=species:S:1:pos:R:3:forces:R:3 energy=4.538187110217107 pbc="F F F"
Rb       0.00000000       0.00000000       0.00000000       0.00000000       0.00000000     -12.91154861
Rb       0.00000000       0.00000000       2.00707071       0.00000000       0.00000000      12.91154861
2
Properties=species:S:1:pos:R:3:forces:R:3 energy=3.8225464303736083 pbc="F F F"
Rb       0.00000000       0.00000000       0.00000000       0.00000000       0.00000000     -11.16879749
Rb       0.00000000       0.00000000       2.06666667       0.00000000       0.00000000      11.16879749
2
Properties=species:S:1:pos:R:3:forces:R:3 energy=3.199923626430392 pbc="F F F"
Rb       0.00000000       0.00000000       0.00000000       0.00000000       0.00000000      -9.77706432
Rb       0.00000000       0.00000000       2.12626263       0.00000000       0.00000000       9.77706432
2
Properties=species:S:1:pos:R:3:forces:R:3 energy=2.6521402750030565 pbc="F F F"
Rb       0.00000000       0.00000000       0.00000000       0.00000000       0.00000000      -8.64109993
Rb       0.00000000       0.00000000       2.18585859       0.00000000       0.00000000       8.64109993
2
Properties=species:S:1:pos:R:3:forces:R:3 energy=2.1664949106419664 pbc="F F F"
Rb       0.00000000       0.00000000       0.00000000       0.00000000       0.00000000      -7.68181086
Rb       0.00000000       0.00000000       2.24545455       0.00000000       0.00000000       7.68181086
2
Properties=species:S:1:pos:R:3:forces:R:3 energy=1.7338462549138316 pbc="F F F"
Rb       0.00000000       0.00000000       0.00000000       0.00000000       0.00000000      -6.85816097
Rb       0.00000000       0.00000000       2.30505051       0.00000000       0.00000000       6.85816097
2
Properties=species:S:1:pos:R:3:forces:R:3 energy=1.3467623808916966 pbc="F F F"
Rb       0.00000000       0.00000000       0.00000000       0.00000000       0.00000000      -6.15017319
Rb       0.00000000       0.00000000       2.36464646       0.00000000       0.00000000       6.15017319
2
Properties=species:S:1:pos:R:3:forces:R:3 energy=0.9987861375931744 pbc="F F F"
Rb       0.00000000       0.00000000       0.00000000       0.00000000       0.00000000      -5.54321194
Rb       0.00000000       0.00000000       2.42424242       0.00000000       0.00000000       5.54321194
2
Properties=species:S:1:pos:R:3:forces:R:3 energy=0.6843649420445438 pbc="F F F"
Rb       0.00000000       0.00000000       0.00000000       0.00000000       0.00000000      -5.02121019
Rb       0.00000000       0.00000000       2.48383838       0.00000000       0.00000000       5.02121019
2
Properties=species:S:1:pos:R:3:forces:R:3 energy=0.3989961534254471 pbc="F F F"
Rb       0.00000000       0.00000000       0.00000000       0.00000000       0.00000000      -4.56480742
Rb       0.00000000       0.00000000       2.54343434       0.00000000       0.00000000       4.56480742
2
Properties=species:S:1:pos:R:3:forces:R:3 energy=0.1394047497632313 pbc="F F F"
Rb       0.00000000       0.00000000       0.00000000       0.00000000       0.00000000      -4.15245199
Rb       0.00000000       0.00000000       2.60303030       0.00000000       0.00000000       4.15245199
2
Properties=species:S:1:pos:R:3:forces:R:3 energy=-0.09642351921326771 pbc="F F F"
Rb       0.00000000       0.00000000       0.00000000       0.00000000       0.00000000      -3.76444530
Rb       0.00000000       0.00000000       2.66262626       0.00000000       0.00000000       3.76444530
2
Properties=species:S:1:pos:R:3:forces:R:3 energy=-0.3095089319672065 pbc="F F F"
Rb       0.00000000       0.00000000       0.00000000       0.00000000       0.00000000      -3.38785577
Rb       0.00000000       0.00000000       2.72222222       0.00000000       0.00000000       3.38785577
2
Properties=species:S:1:pos:R:3:forces:R:3 energy=-0.5003765386028032 pbc="F F F"
Rb       0.00000000       0.00000000       0.00000000       0.00000000       0.00000000      -3.01904511
Rb       0.00000000       0.00000000       2.78181818       0.00000000       0.00000000       3.01904511
2
Properties=species:S:1:pos:R:3:forces:R:3 energy=-0.6695993002712977 pbc="F F F"
Rb       0.00000000       0.00000000       0.00000000       0.00000000       0.00000000      -2.66274333
Rb       0.00000000       0.00000000       2.84141414       0.00000000       0.00000000       2.66274333
2
Properties=species:S:1:pos:R:3:forces:R:3 energy=-0.8181931566760785 pbc="F F F"
Rb       0.00000000       0.00000000       0.00000000       0.00000000       0.00000000      -2.32853174
Rb       0.00000000       0.00000000       2.90101010       0.00000000       0.00000000       2.32853174
2
Properties=species:S:1:pos:R:3:forces:R:3 energy=-0.9477803865649014 pbc="F F F"
Rb       0.00000000       0.00000000       0.00000000       0.00000000       0.00000000      -2.02633691
Rb       0.00000000       0.00000000       2.96060606       0.00000000       0.00000000       2.02633691
2
Properties=species:S:1:pos:R:3:forces:R:3 energy=-1.0604851838520528 pbc="F F F"
Rb       0.00000000       0.00000000       0.00000000       0.00000000       0.00000000      -1.76267779
Rb       0.00000000       0.00000000       3.02020202       0.00000000       0.00000000       1.76267779
2
Properties=species:S:1:pos:R:3:forces:R:3 energy=-1.158670742822169 pbc="F F F"
Rb       0.00000000       0.00000000       0.00000000       0.00000000       0.00000000      -1.53883481
Rb       0.00000000       0.00000000       3.07979798       0.00000000       0.00000000       1.53883481
2
Properties=species:S:1:pos:R:3:forces:R:3 energy=-1.2446211560606246 pbc="F F F"
Rb       0.00000000       0.00000000       0.00000000       0.00000000       0.00000000      -1.35111666
Rb       0.00000000       0.00000000       3.13939394       0.00000000       0.00000000       1.35111666
2
Properties=species:S:1:pos:R:3:forces:R:3 energy=-1.3202914484124566 pbc="F F F"
Rb       0.00000000       0.00000000       0.00000000       0.00000000       0.00000000      -1.19249630
Rb       0.00000000       0.00000000       3.19898990       0.00000000       0.00000000       1.19249630
2
Properties=species:S:1:pos:R:3:forces:R:3 energy=-1.3871723308755448 pbc="F F F"
Rb       0.00000000       0.00000000       0.00000000       0.00000000       0.00000000      -1.05477524
Rb       0.00000000       0.00000000       3.25858586       0.00000000       0.00000000       1.05477524
2
Properties=species:S:1:pos:R:3:forces:R:3 energy=-1.4462773244134317 pbc="F F F"
Rb       0.00000000       0.00000000       0.00000000       0.00000000       0.00000000      -0.93048120
Rb       0.00000000       0.00000000       3.31818182       0.00000000       0.00000000       0.93048120
2
Properties=species:S:1:pos:R:3:forces:R:3 energy=-1.4982313641356781 pbc="F F F"
Rb       0.00000000       0.00000000       0.00000000       0.00000000       0.00000000      -0.81400907
Rb       0.00000000       0.00000000       3.37777778       0.00000000       0.00000000       0.81400907
2
Properties=species:S:1:pos:R:3:forces:R:3 energy=-1.5433883127308727 pbc="F F F"
Rb       0.00000000       0.00000000       0.00000000       0.00000000       0.00000000      -0.70201308
Rb       0.00000000       0.00000000       3.43737374       0.00000000       0.00000000       0.70201308
2
Properties=species:S:1:pos:R:3:forces:R:3 energy=-1.5819724028726612 pbc="F F F"
Rb       0.00000000       0.00000000       0.00000000       0.00000000       0.00000000      -0.59342158
Rb       0.00000000       0.00000000       3.49696970       0.00000000       0.00000000       0.59342158
2
Properties=species:S:1:pos:R:3:forces:R:3 energy=-1.6142055305662293 pbc="F F F"
Rb       0.00000000       0.00000000       0.00000000       0.00000000       0.00000000      -0.48920494
Rb       0.00000000       0.00000000       3.55656566       0.00000000       0.00000000       0.48920494
2
Properties=species:S:1:pos:R:3:forces:R:3 energy=-1.6404149454862789 pbc="F F F"
Rb       0.00000000       0.00000000       0.00000000       0.00000000       0.00000000      -0.39170149
Rb       0.00000000       0.00000000       3.61616162       0.00000000       0.00000000       0.39170149
2
Properties=species:S:1:pos:R:3:forces:R:3 energy=-1.661078807932569 pbc="F F F"
Rb       0.00000000       0.00000000       0.00000000       0.00000000       0.00000000      -0.30351201
Rb       0.00000000       0.00000000       3.67575758       0.00000000       0.00000000       0.30351201
2
Properties=species:S:1:pos:R:3:forces:R:3 energy=-1.6768108504293397 pbc="F F F"
Rb       0.00000000       0.00000000       0.00000000       0.00000000       0.00000000      -0.22635895
Rb       0.00000000       0.00000000       3.73535354       0.00000000       0.00000000       0.22635895
2
Properties=species:S:1:pos:R:3:forces:R:3 energy=-1.6882840263432435 pbc="F F F"
Rb       0.00000000       0.00000000       0.00000000       0.00000000       0.00000000      -0.16048586
Rb       0.00000000       0.00000000       3.79494949       0.00000000       0.00000000       0.16048586
2
Properties=species:S:1:pos:R:3:forces:R:3 energy=-1.6961432898650803 pbc="F F F"
Rb       0.00000000       0.00000000       0.00000000       0.00000000       0.00000000      -0.10485591
Rb       0.00000000       0.00000000       3.85454545       0.00000000       0.00000000       0.10485591
2
Properties=species:S:1:pos:R:3:forces:R:3 energy=-1.700953963716265 pbc="F F F"
Rb       0.00000000       0.00000000       0.00000000       0.00000000       0.00000000      -0.05787407
Rb       0.00000000       0.00000000       3.91414141       0.00000000       0.00000000       0.05787407
2
Properties=species:S:1:pos:R:3:forces:R:3 energy=-1.7031841052614798 pbc="F F F"
Rb       0.00000000       0.00000000       0.00000000       0.00000000       0.00000000      -0.01807768
Rb       0.00000000       0.00000000       3.97373737       0.00000000       0.00000000       0.01807768
2
Properties=species:S:1:pos:R:3:forces:R:3 energy=-1.7032304188580591 pbc="F F F"
Rb       0.00000000       0.00000000       0.00000000       0.00000000       0.00000000       0.01558042
Rb       0.00000000       0.00000000       4.03333333       0.00000000       0.00000000      -0.01558042
2
Properties=species:S:1:pos:R:3:forces:R:3 energy=-1.70143331340842 pbc="F F F"
Rb       0.00000000       0.00000000       0.00000000       0.00000000       0.00000000       0.04389228
Rb       0.00000000       0.00000000       4.09292929       0.00000000       0.00000000      -0.04389228
2
Properties=species:S:1:pos:R:3:forces:R:3 energy=-1.6980883752982925 pbc="F F F"
Rb       0.00000000       0.00000000       0.00000000       0.00000000       0.00000000       0.06769809
Rb       0.00000000       0.00000000       4.15252525       0.00000000       0.00000000      -0.06769809
2
Properties=species:S:1:pos:R:3:forces:R:3 energy=-1.693433504384942 pbc="F F F"
Rb       0.00000000       0.00000000       0.00000000       0.00000000       0.00000000       0.08803628
Rb       0.00000000       0.00000000       4.21212121       0.00000000       0.00000000      -0.08803628
2
Properties=species:S:1:pos:R:3:forces:R:3 energy=-1.6876410064264318 pbc="F F F"
Rb       0.00000000       0.00000000       0.00000000       0.00000000       0.00000000       0.10604837
Rb       0.00000000       0.00000000       4.27171717       0.00000000       0.00000000      -0.10604837
2
Properties=species:S:1:pos:R:3:forces:R:3 energy=-1.6808199896989284 pbc="F F F"
Rb       0.00000000       0.00000000       0.00000000       0.00000000       0.00000000       0.12272243
Rb       0.00000000       0.00000000       4.33131313       0.00000000       0.00000000      -0.12272243
2
Properties=species:S:1:pos:R:3:forces:R:3 energy=-1.6730271239434054 pbc="F F F"
Rb       0.00000000       0.00000000       0.00000000       0.00000000       0.00000000       0.13869785
Rb       0.00000000       0.00000000       4.39090909       0.00000000       0.00000000      -0.13869785
2
Properties=species:S:1:pos:R:3:forces:R:3 energy=-1.6642966270301933 pbc="F F F"
Rb       0.00000000       0.00000000       0.00000000       0.00000000       0.00000000       0.15423173
Rb       0.00000000       0.00000000       4.45050505       0.00000000       0.00000000      -0.15423173
2
Properties=species:S:1:pos:R:3:forces:R:3 energy=-1.6546519892758556 pbc="F F F"
Rb       0.00000000       0.00000000       0.00000000       0.00000000       0.00000000       0.16937034
Rb       0.00000000       0.00000000       4.51010101       0.00000000       0.00000000      -0.16937034
2
Properties=species:S:1:pos:R:3:forces:R:3 energy=-1.6441145003085675 pbc="F F F"
Rb       0.00000000       0.00000000       0.00000000       0.00000000       0.00000000       0.18422090
Rb       0.00000000       0.00000000       4.56969697       0.00000000       0.00000000      -0.18422090
2
Properties=species:S:1:pos:R:3:forces:R:3 energy=-1.632692601445562 pbc="F F F"
Rb       0.00000000       0.00000000       0.00000000       0.00000000       0.00000000       0.19915247
Rb       0.00000000       0.00000000       4.62929293       0.00000000       0.00000000      -0.19915247
2
Properties=species:S:1:pos:R:3:forces:R:3 energy=-1.6203632032438111 pbc="F F F"
Rb       0.00000000       0.00000000       0.00000000       0.00000000       0.00000000       0.21480629
Rb       0.00000000       0.00000000       4.68888889       0.00000000       0.00000000      -0.21480629
2
Properties=species:S:1:pos:R:3:forces:R:3 energy=-1.60706162416609 pbc="F F F"
Rb       0.00000000       0.00000000       0.00000000       0.00000000       0.00000000       0.23184000
Rb       0.00000000       0.00000000       4.74848485       0.00000000       0.00000000      -0.23184000
2
Properties=species:S:1:pos:R:3:forces:R:3 energy=-1.592696262797883 pbc="F F F"
Rb       0.00000000       0.00000000       0.00000000       0.00000000       0.00000000       0.25055400
Rb       0.00000000       0.00000000       4.80808081       0.00000000       0.00000000      -0.25055400
2
Properties=species:S:1:pos:R:3:forces:R:3 energy=-1.5771659155738338 pbc="F F F"
Rb       0.00000000       0.00000000       0.00000000       0.00000000       0.00000000       0.27088895
Rb       0.00000000       0.00000000       4.86767677       0.00000000       0.00000000      -0.27088895
2
Properties=species:S:1:pos:R:3:forces:R:3 energy=-1.5603692335413077 pbc="F F F"
Rb       0.00000000       0.00000000       0.00000000       0.00000000       0.00000000       0.29322389
Rb       0.00000000       0.00000000       4.92727273       0.00000000       0.00000000      -0.29322389
2
Properties=species:S:1:pos:R:3:forces:R:3 energy=-1.5421341968080935 pbc="F F F"
Rb       0.00000000       0.00000000       0.00000000       0.00000000       0.00000000       0.31975114
Rb       0.00000000       0.00000000       4.98686869       0.00000000       0.00000000      -0.31975114
2
Properties=species:S:1:pos:R:3:forces:R:3 energy=-1.5220777268537955 pbc="F F F"
Rb       0.00000000       0.00000000       0.00000000       0.00000000       0.00000000       0.35563368
Rb       0.00000000       0.00000000       5.04646465       0.00000000       0.00000000      -0.35563368
2
Properties=species:S:1:pos:R:3:forces:R:3 energy=-1.4993757462801975 pbc="F F F"
Rb       0.00000000       0.00000000       0.00000000       0.00000000       0.00000000       0.41053179
Rb       0.00000000       0.00000000       5.10606061       0.00000000       0.00000000      -0.41053179
2
Properties=species:S:1:pos:R:3:forces:R:3 energy=-1.4724348970296819 pbc="F F F"
Rb       0.00000000       0.00000000       0.00000000       0.00000000       0.00000000       0.50099528
Rb       0.00000000       0.00000000       5.16565657       0.00000000       0.00000000      -0.50099528
2
Properties=species:S:1:pos:R:3:forces:R:3 energy=-1.4385931886967838 pbc="F F F"
Rb       0.00000000       0.00000000       0.00000000       0.00000000       0.00000000       0.64423800
Rb       0.00000000       0.00000000       5.22525253       0.00000000       0.00000000      -0.64423800
2
Properties=species:S:1:pos:R:3:forces:R:3 energy=-1.39472501901113 pbc="F F F"
Rb       0.00000000       0.00000000       0.00000000       0.00000000       0.00000000       0.83233595
Rb       0.00000000       0.00000000       5.28484848       0.00000000       0.00000000      -0.83233595
2
Properties=species:S:1:pos:R:3:forces:R:3 energy=-1.3395432958165456 pbc="F F F"
Rb       0.00000000       0.00000000       0.00000000       0.00000000       0.00000000       1.01195347
Rb       0.00000000       0.00000000       5.34444444       0.00000000       0.00000000      -1.01195347
2
Properties=species:S:1:pos:R:3:forces:R:3 energy=-1.275549129311679 pbc="F F F"
Rb       0.00000000       0.00000000       0.00000000       0.00000000       0.00000000       1.12133610
Rb       0.00000000       0.00000000       5.40404040       0.00000000       0.00000000      -1.12133610
2
Properties=species:S:1:pos:R:3:forces:R:3 energy=-1.2072126112936625 pbc="F F F"
Rb       0.00000000       0.00000000       0.00000000       0.00000000       0.00000000       1.16678786
Rb       0.00000000       0.00000000       5.46363636       0.00000000       0.00000000      -1.16678786
2
Properties=species:S:1:pos:R:3:forces:R:3 energy=-1.1357874124580034 pbc="F F F"
Rb       0.00000000       0.00000000       0.00000000       0.00000000       0.00000000       1.24934411
Rb       0.00000000       0.00000000       5.52323232       0.00000000       0.00000000      -1.24934411
2
Properties=species:S:1:pos:R:3:forces:R:3 energy=-1.0550623652434614 pbc="F F F"
Rb       0.00000000       0.00000000       0.00000000       0.00000000       0.00000000       1.49159122
Rb       0.00000000       0.00000000       5.58282828       0.00000000       0.00000000      -1.49159122
2
Properties=species:S:1:pos:R:3:forces:R:3 energy=-0.9548342331510311 pbc="F F F"
Rb       0.00000000       0.00000000       0.00000000       0.00000000       0.00000000       1.88532102
Rb       0.00000000       0.00000000       5.64242424       0.00000000       0.00000000      -1.88532102
2
Properties=species:S:1:pos:R:3:forces:R:3 energy=-0.8316720693644483 pbc="F F F"
Rb       0.00000000       0.00000000       0.00000000       0.00000000       0.00000000       2.20514703
Rb       0.00000000       0.00000000       5.70202020       0.00000000       0.00000000      -2.20514703
2
Properties=species:S:1:pos:R:3:forces:R:3 energy=-0.6997865327754103 pbc="F F F"
Rb       0.00000000       0.00000000       0.00000000       0.00000000       0.00000000       2.14673638
Rb       0.00000000       0.00000000       5.76161616       0.00000000       0.00000000      -2.14673638
2
Properties=species:S:1:pos:R:3:forces:R:3 energy=-0.5851968317196166 pbc="F F F"
Rb       0.00000000       0.00000000       0.00000000       0.00000000       0.00000000       1.62965202
Rb       0.00000000       0.00000000       5.82121212       0.00000000       0.00000000      -1.62965202
2
Properties=species:S:1:pos:R:3:forces:R:3 energy=-0.5102558024499492 pbc="F F F"
Rb       0.00000000       0.00000000       0.00000000       0.00000000       0.00000000       0.88728988
Rb       0.00000000       0.00000000       5.88080808       0.00000000       0.00000000      -0.88728988
2
Properties=species:S:1:pos:R:3:forces:R:3 energy=-0.47659492135740833 pbc="F F F"
Rb       0.00000000       0.00000000       0.00000000       0.00000000       0.00000000       0.27733764
Rb       0.00000000       0.00000000       5.94040404       0.00000000       0.00000000      -0.27733764
2
Properties=species:S:1:pos:R:3:forces:R:3 energy=-0.4693161921769455 pbc="F F F"
Rb       0.00000000       0.00000000       0.00000000       0.00000000       0.00000000       0.04632730
Rb       0.00000000       0.00000000       6.00000000       0.00000000       0.00000000      -0.04632730
