2
Properties=species:S:1:pos:R:3:forces:R:3 energy=15117.121090343206 pbc="F F F"
Re       0.00000000       0.00000000       0.00000000       0.00000000       0.00000000 -264727.68750000
Re       0.00000000       0.00000000       0.18000000       0.00000000       0.00000000  264727.68750000
2
Properties=species:S:1:pos:R:3:forces:R:3 energy=5875.820309093206 pbc="F F F"
Re       0.00000000       0.00000000       0.00000000       0.00000000       0.00000000  -87305.40625000
Re       0.00000000       0.00000000       0.23878788       0.00000000       0.00000000   87305.40625000
2
Properties=species:S:1:pos:R:3:forces:R:3 energy=2591.9736294057057 pbc="F F F"
Re       0.00000000       0.00000000       0.00000000       0.00000000       0.00000000  -33866.26562500
Re       0.00000000       0.00000000       0.29757576       0.00000000       0.00000000   33866.26562500
2
Properties=species:S:1:pos:R:3:forces:R:3 energy=1257.7949184682059 pbc="F F F"
Re       0.00000000       0.00000000       0.00000000       0.00000000       0.00000000  -14529.25488281
Re       0.00000000       0.00000000       0.35636364       0.00000000       0.00000000   14529.25488281
2
Properties=species:S:1:pos:R:3:forces:R:3 energy=666.3761562675103 pbc="F F F"
Re       0.00000000       0.00000000       0.00000000       0.00000000       0.00000000   -6696.71337891
Re       0.00000000       0.00000000       0.41515152       0.00000000       0.00000000    6696.71337891
2
Properties=species:S:1:pos:R:3:forces:R:3 energy=386.7273525629084 pbc="F F F"
Re       0.00000000       0.00000000       0.00000000       0.00000000       0.00000000   -3263.83081055
Re       0.00000000       0.00000000       0.47393939       0.00000000       0.00000000    3263.83081055
2
Properties=species:S:1:pos:R:3:forces:R:3 energy=247.68076749257187 pbc="F F F"
Re       0.00000000       0.00000000       0.00000000       0.00000000       0.00000000   -1659.90429688
Re       0.00000000       0.00000000       0.53272727       0.00000000       0.00000000    1659.90429688
2
Properties=species:S:1:pos:R:3:forces:R:3 energy=176.01226470712945 pbc="F F F"
Re       0.00000000       0.00000000       0.00000000       0.00000000       0.00000000    -867.22058105
Re       0.00000000       0.00000000       0.59151515       0.00000000       0.00000000     867.22058105
2
Properties=species:S:1:pos:R:3:forces:R:3 energy=138.33645298073301 pbc="F F F"
Re       0.00000000       0.00000000       0.00000000       0.00000000       0.00000000    -458.41815186
Re       0.00000000       0.00000000       0.65030303       0.00000000       0.00000000     458.41815186
2
Properties=species:S:1:pos:R:3:forces:R:3 energy=118.35239847232411 pbc="F F F"
Re       0.00000000       0.00000000       0.00000000       0.00000000       0.00000000    -244.36657715
Re       0.00000000       0.00000000       0.70909091       0.00000000       0.00000000     244.36657715
2
Properties=species:S:1:pos:R:3:forces:R:3 energy=107.65178363182392 pbc="F F F"
Re       0.00000000       0.00000000       0.00000000       0.00000000       0.00000000    -131.38491821
Re       0.00000000       0.00000000       0.76787879       0.00000000       0.00000000     131.38491821
2
Properties=species:S:1:pos:R:3:forces:R:3 energy=101.8818176457198 pbc="F F F"
Re       0.00000000       0.00000000       0.00000000       0.00000000       0.00000000     -71.63763428
Re       0.00000000       0.00000000       0.82666667       0.00000000       0.00000000      71.63763428
2
Properties=species:S:1:pos:R:3:forces:R:3 energy=98.55114462118352 pbc="F F F"
Re       0.00000000       0.00000000       0.00000000       0.00000000       0.00000000     -46.81829071
Re       0.00000000       0.00000000       0.88545455       0.00000000       0.00000000      46.81829071
2
Properties=species:S:1:pos:R:3:forces:R:3 energy=95.82085924591716 pbc="F F F"
Re       0.00000000       0.00000000       0.00000000       0.00000000       0.00000000     -50.38542175
Re       0.00000000       0.00000000       0.94424242       0.00000000       0.00000000      50.38542175
2
Properties=species:S:1:pos:R:3:forces:R:3 energy=92.18752069149751 pbc="F F F"
Re       0.00000000       0.00000000       0.00000000       0.00000000       0.00000000     -76.23195648
Re       0.00000000       0.00000000       1.00303030       0.00000000       0.00000000      76.23195648
2
Properties=species:S:1:pos:R:3:forces:R:3 energy=86.60420057433764 pbc="F F F"
Re       0.00000000       0.00000000       0.00000000       0.00000000       0.00000000    -115.03723145
Re       0.00000000       0.00000000       1.06181818       0.00000000       0.00000000     115.03723145
2
Properties=species:S:1:pos:R:3:forces:R:3 energy=78.59796040118937 pbc="F F F"
Re       0.00000000       0.00000000       0.00000000       0.00000000       0.00000000    -157.10609436
Re       0.00000000       0.00000000       1.12060606       0.00000000       0.00000000     157.10609436
2
Properties=species:S:1:pos:R:3:forces:R:3 energy=68.25884994738328 pbc="F F F"
Re       0.00000000       0.00000000       0.00000000       0.00000000       0.00000000    -192.65988159
Re       0.00000000       0.00000000       1.17939394       0.00000000       0.00000000     192.65988159
2
Properties=species:S:1:pos:R:3:forces:R:3 energy=56.282288578295784 pbc="F F F"
Re       0.00000000       0.00000000       0.00000000       0.00000000       0.00000000    -211.18199158
Re       0.00000000       0.00000000       1.23818182       0.00000000       0.00000000     211.18199158
2
Properties=species:S:1:pos:R:3:forces:R:3 energy=43.88556913976004 pbc="F F F"
Re       0.00000000       0.00000000       0.00000000       0.00000000       0.00000000    -206.88346863
Re       0.00000000       0.00000000       1.29696970       0.00000000       0.00000000     206.88346863
2
Properties=species:S:1:pos:R:3:forces:R:3 energy=32.28373381255812 pbc="F F F"
Re       0.00000000       0.00000000       0.00000000       0.00000000       0.00000000    -186.20794678
Re       0.00000000       0.00000000       1.35575758       0.00000000       0.00000000     186.20794678
2
Properties=species:S:1:pos:R:3:forces:R:3 energy=22.057734366559398 pbc="F F F"
Re       0.00000000       0.00000000       0.00000000       0.00000000       0.00000000    -161.84846497
Re       0.00000000       0.00000000       1.41454545       0.00000000       0.00000000     161.84846497
2
Properties=species:S:1:pos:R:3:forces:R:3 energy=13.2216642958464 pbc="F F F"
Re       0.00000000       0.00000000       0.00000000       0.00000000       0.00000000    -138.79167175
Re       0.00000000       0.00000000       1.47333333       0.00000000       0.00000000     138.79167175
2
Properties=species:S:1:pos:R:3:forces:R:3 energy=5.795427841614972 pbc="F F F"
Re       0.00000000       0.00000000       0.00000000       0.00000000       0.00000000    -112.99061584
Re       0.00000000       0.00000000       1.53212121       0.00000000       0.00000000     112.99061584
2
Properties=species:S:1:pos:R:3:forces:R:3 energy=0.01261429660563227 pbc="F F F"
Re       0.00000000       0.00000000       0.00000000       0.00000000       0.00000000     -83.76638794
Re       0.00000000       0.00000000       1.59090909       0.00000000       0.00000000      83.76638794
2
Properties=species:S:1:pos:R:3:forces:R:3 energy=-4.153970668088704 pbc="F F F"
Re       0.00000000       0.00000000       0.00000000       0.00000000       0.00000000     -59.37483215
Re       0.00000000       0.00000000       1.64969697       0.00000000       0.00000000      59.37483215
2
Properties=species:S:1:pos:R:3:forces:R:3 energy=-7.123472143898212 pbc="F F F"
Re       0.00000000       0.00000000       0.00000000       0.00000000       0.00000000     -42.65091324
Re       0.00000000       0.00000000       1.70848485       0.00000000       0.00000000      42.65091324
2
Properties=species:S:1:pos:R:3:forces:R:3 energy=-9.250763057786525 pbc="F F F"
Re       0.00000000       0.00000000       0.00000000       0.00000000       0.00000000     -30.25395393
Re       0.00000000       0.00000000       1.76727273       0.00000000       0.00000000      30.25395393
2
Properties=species:S:1:pos:R:3:forces:R:3 energy=-10.740417407003648 pbc="F F F"
Re       0.00000000       0.00000000       0.00000000       0.00000000       0.00000000     -20.92330170
Re       0.00000000       0.00000000       1.82606061       0.00000000       0.00000000      20.92330170
2
Properties=species:S:1:pos:R:3:forces:R:3 energy=-11.764105078711644 pbc="F F F"
Re       0.00000000       0.00000000       0.00000000       0.00000000       0.00000000     -14.28611374
Re       0.00000000       0.00000000       1.88484848       0.00000000       0.00000000      14.28611374
2
Properties=species:S:1:pos:R:3:forces:R:3 energy=-12.45569547847193 pbc="F F F"
Re       0.00000000       0.00000000       0.00000000       0.00000000       0.00000000      -9.47210121
Re       0.00000000       0.00000000       1.94363636       0.00000000       0.00000000       9.47210121
2
Properties=species:S:1:pos:R:3:forces:R:3 energy=-12.898572375541429 pbc="F F F"
Re       0.00000000       0.00000000       0.00000000       0.00000000       0.00000000      -5.73202562
Re       0.00000000       0.00000000       2.00242424       0.00000000       0.00000000       5.73202562
2
Properties=species:S:1:pos:R:3:forces:R:3 energy=-13.143049633814059 pbc="F F F"
Re       0.00000000       0.00000000       0.00000000       0.00000000       0.00000000      -2.68399453
Re       0.00000000       0.00000000       2.06121212       0.00000000       0.00000000       2.68399453
2
Properties=species:S:1:pos:R:3:forces:R:3 energy=-13.224866115614065 pbc="F F F"
Re       0.00000000       0.00000000       0.00000000       0.00000000       0.00000000      -0.18616730
Re       0.00000000       0.00000000       2.12000000       0.00000000       0.00000000       0.18616730
2
Properties=species:S:1:pos:R:3:forces:R:3 energy=-13.174938981789827 pbc="F F F"
Re       0.00000000       0.00000000       0.00000000       0.00000000       0.00000000       1.80016434
Re       0.00000000       0.00000000       2.17878788       0.00000000       0.00000000      -1.80016434
2
Properties=species:S:1:pos:R:3:forces:R:3 energy=-13.023185374986422 pbc="F F F"
Re       0.00000000       0.00000000       0.00000000       0.00000000       0.00000000       3.27740908
Re       0.00000000       0.00000000       2.23757576       0.00000000       0.00000000      -3.27740908
2
Properties=species:S:1:pos:R:3:forces:R:3 energy=-12.799564934401232 pbc="F F F"
Re       0.00000000       0.00000000       0.00000000       0.00000000       0.00000000       4.24697638
Re       0.00000000       0.00000000       2.29636364       0.00000000       0.00000000      -4.24697638
2
Properties=species:S:1:pos:R:3:forces:R:3 energy=-12.533212271946221 pbc="F F F"
Re       0.00000000       0.00000000       0.00000000       0.00000000       0.00000000       4.74031734
Re       0.00000000       0.00000000       2.35515152       0.00000000       0.00000000      -4.74031734
2
Properties=species:S:1:pos:R:3:forces:R:3 energy=-12.249995137702532 pbc="F F F"
Re       0.00000000       0.00000000       0.00000000       0.00000000       0.00000000       4.83835077
Re       0.00000000       0.00000000       2.41393939       0.00000000       0.00000000      -4.83835077
2
Properties=species:S:1:pos:R:3:forces:R:3 energy=-11.969694416998767 pbc="F F F"
Re       0.00000000       0.00000000       0.00000000       0.00000000       0.00000000       4.66341829
Re       0.00000000       0.00000000       2.47272727       0.00000000       0.00000000      -4.66341829
2
Properties=species:S:1:pos:R:3:forces:R:3 energy=-11.704449275696899 pbc="F F F"
Re       0.00000000       0.00000000       0.00000000       0.00000000       0.00000000       4.34657955
Re       0.00000000       0.00000000       2.53151515       0.00000000       0.00000000      -4.34657955
2
Properties=species:S:1:pos:R:3:forces:R:3 energy=-11.459366724216682 pbc="F F F"
Re       0.00000000       0.00000000       0.00000000       0.00000000       0.00000000       3.99105906
Re       0.00000000       0.00000000       2.59030303       0.00000000       0.00000000      -3.99105906
2
Properties=species:S:1:pos:R:3:forces:R:3 energy=-11.234839563409448 pbc="F F F"
Re       0.00000000       0.00000000       0.00000000       0.00000000       0.00000000       3.65232873
Re       0.00000000       0.00000000       2.64909091       0.00000000       0.00000000      -3.65232873
2
Properties=species:S:1:pos:R:3:forces:R:3 energy=-11.02935447960721 pbc="F F F"
Re       0.00000000       0.00000000       0.00000000       0.00000000       0.00000000       3.34279203
Re       0.00000000       0.00000000       2.70787879       0.00000000       0.00000000      -3.34279203
2
Properties=species:S:1:pos:R:3:forces:R:3 energy=-10.841420000055235 pbc="F F F"
Re       0.00000000       0.00000000       0.00000000       0.00000000       0.00000000       3.05313492
Re       0.00000000       0.00000000       2.76666667       0.00000000       0.00000000      -3.05313492
2
Properties=species:S:1:pos:R:3:forces:R:3 energy=-10.670162941194906 pbc="F F F"
Re       0.00000000       0.00000000       0.00000000       0.00000000       0.00000000       2.77484989
Re       0.00000000       0.00000000       2.82545455       0.00000000       0.00000000      -2.77484989
2
Properties=species:S:1:pos:R:3:forces:R:3 energy=-10.514938002120068 pbc="F F F"
Re       0.00000000       0.00000000       0.00000000       0.00000000       0.00000000       2.50806808
Re       0.00000000       0.00000000       2.88424242       0.00000000       0.00000000      -2.50806808
2
Properties=species:S:1:pos:R:3:forces:R:3 energy=-10.375093992712255 pbc="F F F"
Re       0.00000000       0.00000000       0.00000000       0.00000000       0.00000000       2.25031090
Re       0.00000000       0.00000000       2.94303030       0.00000000       0.00000000      -2.25031090
2
Properties=species:S:1:pos:R:3:forces:R:3 energy=-10.250338303666583 pbc="F F F"
Re       0.00000000       0.00000000       0.00000000       0.00000000       0.00000000       1.99377728
Re       0.00000000       0.00000000       3.00181818       0.00000000       0.00000000      -1.99377728
2
Properties=species:S:1:pos:R:3:forces:R:3 energy=-10.140655490453351 pbc="F F F"
Re       0.00000000       0.00000000       0.00000000       0.00000000       0.00000000       1.73843801
Re       0.00000000       0.00000000       3.06060606       0.00000000       0.00000000      -1.73843801
2
Properties=species:S:1:pos:R:3:forces:R:3 energy=-10.045768312990429 pbc="F F F"
Re       0.00000000       0.00000000       0.00000000       0.00000000       0.00000000       1.49192548
Re       0.00000000       0.00000000       3.11939394       0.00000000       0.00000000      -1.49192548
2
Properties=species:S:1:pos:R:3:forces:R:3 energy=-9.964901068159302 pbc="F F F"
Re       0.00000000       0.00000000       0.00000000       0.00000000       0.00000000       1.26273489
Re       0.00000000       0.00000000       3.17818182       0.00000000       0.00000000      -1.26273489
2
Properties=species:S:1:pos:R:3:forces:R:3 energy=-9.89681286524832 pbc="F F F"
Re       0.00000000       0.00000000       0.00000000       0.00000000       0.00000000       1.05839479
Re       0.00000000       0.00000000       3.23696970       0.00000000       0.00000000      -1.05839479
2
Properties=species:S:1:pos:R:3:forces:R:3 energy=-9.839852201643032 pbc="F F F"
Re       0.00000000       0.00000000       0.00000000       0.00000000       0.00000000       0.88496494
Re       0.00000000       0.00000000       3.29575758       0.00000000       0.00000000      -0.88496494
2
Properties=species:S:1:pos:R:3:forces:R:3 energy=-9.792095888771458 pbc="F F F"
Re       0.00000000       0.00000000       0.00000000       0.00000000       0.00000000       0.74540073
Re       0.00000000       0.00000000       3.35454545       0.00000000       0.00000000      -0.74540073
2
Properties=species:S:1:pos:R:3:forces:R:3 energy=-9.751570796487863 pbc="F F F"
Re       0.00000000       0.00000000       0.00000000       0.00000000       0.00000000       0.63839442
Re       0.00000000       0.00000000       3.41333333       0.00000000       0.00000000      -0.63839442
2
Properties=species:S:1:pos:R:3:forces:R:3 energy=-9.716492831557115 pbc="F F F"
Re       0.00000000       0.00000000       0.00000000       0.00000000       0.00000000       0.55902189
Re       0.00000000       0.00000000       3.47212121       0.00000000       0.00000000      -0.55902189
2
Properties=species:S:1:pos:R:3:forces:R:3 energy=-9.6854335992492 pbc="F F F"
Re       0.00000000       0.00000000       0.00000000       0.00000000       0.00000000       0.50053006
Re       0.00000000       0.00000000       3.53090909       0.00000000       0.00000000      -0.50053006
2
Properties=species:S:1:pos:R:3:forces:R:3 energy=-9.657371936438494 pbc="F F F"
Re       0.00000000       0.00000000       0.00000000       0.00000000       0.00000000       0.45591244
Re       0.00000000       0.00000000       3.58969697       0.00000000       0.00000000      -0.45591244
2
Properties=species:S:1:pos:R:3:forces:R:3 energy=-9.631682207750563 pbc="F F F"
Re       0.00000000       0.00000000       0.00000000       0.00000000       0.00000000       0.41884258
Re       0.00000000       0.00000000       3.64848485       0.00000000       0.00000000      -0.41884258
2
Properties=species:S:1:pos:R:3:forces:R:3 energy=-9.608079530981556 pbc="F F F"
Re       0.00000000       0.00000000       0.00000000       0.00000000       0.00000000       0.38423619
Re       0.00000000       0.00000000       3.70727273       0.00000000       0.00000000      -0.38423619
2
Properties=species:S:1:pos:R:3:forces:R:3 energy=-9.586525116250773 pbc="F F F"
Re       0.00000000       0.00000000       0.00000000       0.00000000       0.00000000       0.34868038
Re       0.00000000       0.00000000       3.76606061       0.00000000       0.00000000      -0.34868038
2
Properties=species:S:1:pos:R:3:forces:R:3 energy=-9.567132900952311 pbc="F F F"
Re       0.00000000       0.00000000       0.00000000       0.00000000       0.00000000       0.31058607
Re       0.00000000       0.00000000       3.82484848       0.00000000       0.00000000      -0.31058607
2
Properties=species:S:1:pos:R:3:forces:R:3 energy=-9.550059107268048 pbc="F F F"
Re       0.00000000       0.00000000       0.00000000       0.00000000       0.00000000       0.26991948
Re       0.00000000       0.00000000       3.88363636       0.00000000       0.00000000      -0.26991948
2
Properties=species:S:1:pos:R:3:forces:R:3 energy=-9.53542867619675 pbc="F F F"
Re       0.00000000       0.00000000       0.00000000       0.00000000       0.00000000       0.22765397
Re       0.00000000       0.00000000       3.94242424       0.00000000       0.00000000      -0.22765397
2
Properties=species:S:1:pos:R:3:forces:R:3 energy=-9.523295232239713 pbc="F F F"
Re       0.00000000       0.00000000       0.00000000       0.00000000       0.00000000       0.18526499
Re       0.00000000       0.00000000       4.00121212       0.00000000       0.00000000      -0.18526499
2
Properties=species:S:1:pos:R:3:forces:R:3 energy=-9.513616515951734 pbc="F F F"
Re       0.00000000       0.00000000       0.00000000       0.00000000       0.00000000       0.14442751
Re       0.00000000       0.00000000       4.06000000       0.00000000       0.00000000      -0.14442751
2
Properties=species:S:1:pos:R:3:forces:R:3 energy=-9.506248585867477 pbc="F F F"
Re       0.00000000       0.00000000       0.00000000       0.00000000       0.00000000       0.10692341
Re       0.00000000       0.00000000       4.11878788       0.00000000       0.00000000      -0.10692341
2
Properties=species:S:1:pos:R:3:forces:R:3 energy=-9.500942970149818 pbc="F F F"
Re       0.00000000       0.00000000       0.00000000       0.00000000       0.00000000       0.07458277
Re       0.00000000       0.00000000       4.17757576       0.00000000       0.00000000      -0.07458277
2
Properties=species:S:1:pos:R:3:forces:R:3 energy=-9.497343041961903 pbc="F F F"
Re       0.00000000       0.00000000       0.00000000       0.00000000       0.00000000       0.04917648
Re       0.00000000       0.00000000       4.23636364       0.00000000       0.00000000      -0.04917648
2
Properties=species:S:1:pos:R:3:forces:R:3 energy=-9.494995121434156 pbc="F F F"
Re       0.00000000       0.00000000       0.00000000       0.00000000       0.00000000       0.03221043
Re       0.00000000       0.00000000       4.29515152       0.00000000       0.00000000      -0.03221043
2
Properties=species:S:1:pos:R:3:forces:R:3 energy=-9.493370872675587 pbc="F F F"
Re       0.00000000       0.00000000       0.00000000       0.00000000       0.00000000       0.02465921
Re       0.00000000       0.00000000       4.35393939       0.00000000       0.00000000      -0.02465921
2
Properties=species:S:1:pos:R:3:forces:R:3 energy=-9.49190800132283 pbc="F F F"
Re       0.00000000       0.00000000       0.00000000       0.00000000       0.00000000       0.02668409
Re       0.00000000       0.00000000       4.41272727       0.00000000       0.00000000      -0.02668409
2
Properties=species:S:1:pos:R:3:forces:R:3 energy=-9.490061860659182 pbc="F F F"
Re       0.00000000       0.00000000       0.00000000       0.00000000       0.00000000       0.03742691
Re       0.00000000       0.00000000       4.47151515       0.00000000       0.00000000      -0.03742691
2
Properties=species:S:1:pos:R:3:forces:R:3 energy=-9.487374109829737 pbc="F F F"
Re       0.00000000       0.00000000       0.00000000       0.00000000       0.00000000       0.05494305
Re       0.00000000       0.00000000       4.53030303       0.00000000       0.00000000      -0.05494305
2
Properties=species:S:1:pos:R:3:forces:R:3 energy=-9.483526011897153 pbc="F F F"
Re       0.00000000       0.00000000       0.00000000       0.00000000       0.00000000       0.07634851
Re       0.00000000       0.00000000       4.58909091       0.00000000       0.00000000      -0.07634851
2
Properties=species:S:1:pos:R:3:forces:R:3 energy=-9.478389038769045 pbc="F F F"
Re       0.00000000       0.00000000       0.00000000       0.00000000       0.00000000       0.09818899
Re       0.00000000       0.00000000       4.64787879       0.00000000       0.00000000      -0.09818899
2
Properties=species:S:1:pos:R:3:forces:R:3 energy=-9.472040960116297 pbc="F F F"
Re       0.00000000       0.00000000       0.00000000       0.00000000       0.00000000       0.11698265
Re       0.00000000       0.00000000       4.70666667       0.00000000       0.00000000      -0.11698265
2
Properties=species:S:1:pos:R:3:forces:R:3 energy=-9.464751430552363 pbc="F F F"
Re       0.00000000       0.00000000       0.00000000       0.00000000       0.00000000       0.12983856
Re       0.00000000       0.00000000       4.76545455       0.00000000       0.00000000      -0.12983856
2
Properties=species:S:1:pos:R:3:forces:R:3 energy=-9.456926717704606 pbc="F F F"
Re       0.00000000       0.00000000       0.00000000       0.00000000       0.00000000       0.13500643
Re       0.00000000       0.00000000       4.82424242       0.00000000       0.00000000      -0.13500643
2
Properties=species:S:1:pos:R:3:forces:R:3 energy=-9.44903522058295 pbc="F F F"
Re       0.00000000       0.00000000       0.00000000       0.00000000       0.00000000       0.13222186
Re       0.00000000       0.00000000       4.88303030       0.00000000       0.00000000      -0.13222186
2
Properties=species:S:1:pos:R:3:forces:R:3 energy=-9.441512887927985 pbc="F F F"
Re       0.00000000       0.00000000       0.00000000       0.00000000       0.00000000       0.12272733
Re       0.00000000       0.00000000       4.94181818       0.00000000       0.00000000      -0.12272733
2
Properties=species:S:1:pos:R:3:forces:R:3 energy=-9.434690723123808 pbc="F F F"
Re       0.00000000       0.00000000       0.00000000       0.00000000       0.00000000       0.10885070
Re       0.00000000       0.00000000       5.00060606       0.00000000       0.00000000      -0.10885070
2
Properties=species:S:1:pos:R:3:forces:R:3 energy=-9.428750889836891 pbc="F F F"
Re       0.00000000       0.00000000       0.00000000       0.00000000       0.00000000       0.09306744
Re       0.00000000       0.00000000       5.05939394       0.00000000       0.00000000      -0.09306744
2
Properties=species:S:1:pos:R:3:forces:R:3 energy=-9.423758021709597 pbc="F F F"
Re       0.00000000       0.00000000       0.00000000       0.00000000       0.00000000       0.07671689
Re       0.00000000       0.00000000       5.11818182       0.00000000       0.00000000      -0.07671689
2
Properties=species:S:1:pos:R:3:forces:R:3 energy=-9.419751716097574 pbc="F F F"
Re       0.00000000       0.00000000       0.00000000       0.00000000       0.00000000       0.05930710
Re       0.00000000       0.00000000       5.17696970       0.00000000       0.00000000      -0.05930710
2
Properties=species:S:1:pos:R:3:forces:R:3 energy=-9.416825635185049 pbc="F F F"
Re       0.00000000       0.00000000       0.00000000       0.00000000       0.00000000       0.03994721
Re       0.00000000       0.00000000       5.23575758       0.00000000       0.00000000      -0.03994721
2
Properties=species:S:1:pos:R:3:forces:R:3 energy=-9.415056880232433 pbc="F F F"
Re       0.00000000       0.00000000       0.00000000       0.00000000       0.00000000       0.02064442
Re       0.00000000       0.00000000       5.29454545       0.00000000       0.00000000      -0.02064442
2
Properties=species:S:1:pos:R:3:forces:R:3 energy=-9.414292374865088 pbc="F F F"
Re       0.00000000       0.00000000       0.00000000       0.00000000       0.00000000       0.00670256
Re       0.00000000       0.00000000       5.35333333       0.00000000       0.00000000      -0.00670256
2
Properties=species:S:1:pos:R:3:forces:R:3 energy=-9.414091546411864 pbc="F F F"
Re       0.00000000       0.00000000       0.00000000       0.00000000       0.00000000       0.00155978
Re       0.00000000       0.00000000       5.41212121       0.00000000       0.00000000      -0.00155978
2
Properties=species:S:1:pos:R:3:forces:R:3 energy=-9.413983882910875 pbc="F F F"
Re       0.00000000       0.00000000       0.00000000       0.00000000       0.00000000       0.00264588
Re       0.00000000       0.00000000       5.47090909       0.00000000       0.00000000      -0.00264588
2
Properties=species:S:1:pos:R:3:forces:R:3 energy=-9.413786474978647 pbc="F F F"
Re       0.00000000       0.00000000       0.00000000       0.00000000       0.00000000       0.00347737
Re       0.00000000       0.00000000       5.52969697       0.00000000       0.00000000      -0.00347737
2
Properties=species:S:1:pos:R:3:forces:R:3 energy=-9.413690792253346 pbc="F F F"
Re       0.00000000       0.00000000       0.00000000       0.00000000       0.00000000      -0.00142930
Re       0.00000000       0.00000000       5.58848485       0.00000000       0.00000000       0.00142930
2
Properties=species:S:1:pos:R:3:forces:R:3 energy=-9.414075832920862 pbc="F F F"
Re       0.00000000       0.00000000       0.00000000       0.00000000       0.00000000      -0.01228350
Re       0.00000000       0.00000000       5.64727273       0.00000000       0.00000000       0.01228350
2
Properties=species:S:1:pos:R:3:forces:R:3 energy=-9.415131362171197 pbc="F F F"
Re       0.00000000       0.00000000       0.00000000       0.00000000       0.00000000      -0.02289974
Re       0.00000000       0.00000000       5.70606061       0.00000000       0.00000000       0.02289974
2
Properties=species:S:1:pos:R:3:forces:R:3 energy=-9.416607171880992 pbc="F F F"
Re       0.00000000       0.00000000       0.00000000       0.00000000       0.00000000      -0.02531932
Re       0.00000000       0.00000000       5.76484848       0.00000000       0.00000000       0.02531932
2
Properties=species:S:1:pos:R:3:forces:R:3 energy=-9.417890385253942 pbc="F F F"
Re       0.00000000       0.00000000       0.00000000       0.00000000       0.00000000      -0.01686791
Re       0.00000000       0.00000000       5.82363636       0.00000000       0.00000000       0.01686791
2
Properties=species:S:1:pos:R:3:forces:R:3 energy=-9.418468895021249 pbc="F F F"
Re       0.00000000       0.00000000       0.00000000       0.00000000       0.00000000      -0.00265463
Re       0.00000000       0.00000000       5.88242424       0.00000000       0.00000000       0.00265463
2
Properties=species:S:1:pos:R:3:forces:R:3 energy=-9.41824806726195 pbc="F F F"
Re       0.00000000       0.00000000       0.00000000       0.00000000       0.00000000       0.00933650
Re       0.00000000       0.00000000       5.94121212       0.00000000       0.00000000      -0.00933650
2
Properties=species:S:1:pos:R:3:forces:R:3 energy=-9.417528838571862 pbc="F F F"
Re       0.00000000       0.00000000       0.00000000       0.00000000       0.00000000       0.01352419
Re       0.00000000       0.00000000       6.00000000       0.00000000       0.00000000      -0.01352419
