2
Properties=species:S:1:pos:R:3:forces:R:3 energy=1717.205158923508 pbc="F F F"
S        0.00000000       0.00000000       0.00000000       0.00000000       0.00000000  -24248.36914062
S        0.00000000       0.00000000       0.18000000       0.00000000       0.00000000   24248.36914062
2
Properties=species:S:1:pos:R:3:forces:R:3 energy=817.6019484742892 pbc="F F F"
S        0.00000000       0.00000000       0.00000000       0.00000000       0.00000000   -9225.04199219
S        0.00000000       0.00000000       0.23878788       0.00000000       0.00000000    9225.04199219
2
Properties=species:S:1:pos:R:3:forces:R:3 energy=450.09380028409765 pbc="F F F"
S        0.00000000       0.00000000       0.00000000       0.00000000       0.00000000   -4091.35693359
S        0.00000000       0.00000000       0.29757576       0.00000000       0.00000000    4091.35693359
2
Properties=species:S:1:pos:R:3:forces:R:3 energy=279.5136611334449 pbc="F F F"
S        0.00000000       0.00000000       0.00000000       0.00000000       0.00000000   -1994.90075684
S        0.00000000       0.00000000       0.35636364       0.00000000       0.00000000    1994.90075684
2
Properties=species:S:1:pos:R:3:forces:R:3 energy=194.20969081236993 pbc="F F F"
S        0.00000000       0.00000000       0.00000000       0.00000000       0.00000000   -1022.03875732
S        0.00000000       0.00000000       0.41515152       0.00000000       0.00000000    1022.03875732
2
Properties=species:S:1:pos:R:3:forces:R:3 energy=150.12198332768472 pbc="F F F"
S        0.00000000       0.00000000       0.00000000       0.00000000       0.00000000    -531.13726807
S        0.00000000       0.00000000       0.47393939       0.00000000       0.00000000     531.13726807
2
Properties=species:S:1:pos:R:3:forces:R:3 energy=127.3000839801465 pbc="F F F"
S        0.00000000       0.00000000       0.00000000       0.00000000       0.00000000    -271.91406250
S        0.00000000       0.00000000       0.53272727       0.00000000       0.00000000     271.91406250
2
Properties=species:S:1:pos:R:3:forces:R:3 energy=115.78147600092638 pbc="F F F"
S        0.00000000       0.00000000       0.00000000       0.00000000       0.00000000    -136.01127625
S        0.00000000       0.00000000       0.59151515       0.00000000       0.00000000     136.01127625
2
Properties=species:S:1:pos:R:3:forces:R:3 energy=109.68505589974194 pbc="F F F"
S        0.00000000       0.00000000       0.00000000       0.00000000       0.00000000     -83.30826569
S        0.00000000       0.00000000       0.65030303       0.00000000       0.00000000      83.30826569
2
Properties=species:S:1:pos:R:3:forces:R:3 energy=104.81418369995863 pbc="F F F"
S        0.00000000       0.00000000       0.00000000       0.00000000       0.00000000     -90.27246094
S        0.00000000       0.00000000       0.70909091       0.00000000       0.00000000      90.27246094
2
Properties=species:S:1:pos:R:3:forces:R:3 energy=98.39360615002751 pbc="F F F"
S        0.00000000       0.00000000       0.00000000       0.00000000       0.00000000    -131.92021179
S        0.00000000       0.00000000       0.76787879       0.00000000       0.00000000     131.92021179
2
Properties=species:S:1:pos:R:3:forces:R:3 energy=89.0928103064811 pbc="F F F"
S        0.00000000       0.00000000       0.00000000       0.00000000       0.00000000    -184.15489197
S        0.00000000       0.00000000       0.82666667       0.00000000       0.00000000     184.15489197
2
Properties=species:S:1:pos:R:3:forces:R:3 energy=77.08729520774946 pbc="F F F"
S        0.00000000       0.00000000       0.00000000       0.00000000       0.00000000    -218.74472046
S        0.00000000       0.00000000       0.88545455       0.00000000       0.00000000     218.74472046
2
Properties=species:S:1:pos:R:3:forces:R:3 energy=64.11674600746105 pbc="F F F"
S        0.00000000       0.00000000       0.00000000       0.00000000       0.00000000    -217.57498169
S        0.00000000       0.00000000       0.94424242       0.00000000       0.00000000     217.57498169
2
Properties=species:S:1:pos:R:3:forces:R:3 energy=51.775385845286166 pbc="F F F"
S        0.00000000       0.00000000       0.00000000       0.00000000       0.00000000    -201.60659790
S        0.00000000       0.00000000       1.00303030       0.00000000       0.00000000     201.60659790
2
Properties=species:S:1:pos:R:3:forces:R:3 energy=40.48325880592152 pbc="F F F"
S        0.00000000       0.00000000       0.00000000       0.00000000       0.00000000    -181.86459351
S        0.00000000       0.00000000       1.06181818       0.00000000       0.00000000     181.86459351
2
Properties=species:S:1:pos:R:3:forces:R:3 energy=30.453862225462565 pbc="F F F"
S        0.00000000       0.00000000       0.00000000       0.00000000       0.00000000    -159.10328674
S        0.00000000       0.00000000       1.12060606       0.00000000       0.00000000     159.10328674
2
Properties=species:S:1:pos:R:3:forces:R:3 energy=21.788144637222317 pbc="F F F"
S        0.00000000       0.00000000       0.00000000       0.00000000       0.00000000    -135.55470276
S        0.00000000       0.00000000       1.17939394       0.00000000       0.00000000     135.55470276
2
Properties=species:S:1:pos:R:3:forces:R:3 energy=14.547497161893107 pbc="F F F"
S        0.00000000       0.00000000       0.00000000       0.00000000       0.00000000    -110.58832550
S        0.00000000       0.00000000       1.23818182       0.00000000       0.00000000     110.58832550
2
Properties=species:S:1:pos:R:3:forces:R:3 energy=8.764256319625314 pbc="F F F"
S        0.00000000       0.00000000       0.00000000       0.00000000       0.00000000     -86.71403503
S        0.00000000       0.00000000       1.29696970       0.00000000       0.00000000      86.71403503
2
Properties=species:S:1:pos:R:3:forces:R:3 energy=4.2683017269452925 pbc="F F F"
S        0.00000000       0.00000000       0.00000000       0.00000000       0.00000000     -66.96689606
S        0.00000000       0.00000000       1.35575758       0.00000000       0.00000000      66.96689606
2
Properties=species:S:1:pos:R:3:forces:R:3 energy=0.8174089609875385 pbc="F F F"
S        0.00000000       0.00000000       0.00000000       0.00000000       0.00000000     -50.93796921
S        0.00000000       0.00000000       1.41454545       0.00000000       0.00000000      50.93796921
2
Properties=species:S:1:pos:R:3:forces:R:3 energy=-1.772490101688773 pbc="F F F"
S        0.00000000       0.00000000       0.00000000       0.00000000       0.00000000     -37.60879898
S        0.00000000       0.00000000       1.47333333       0.00000000       0.00000000      37.60879898
2
Properties=species:S:1:pos:R:3:forces:R:3 energy=-3.6597357659615297 pbc="F F F"
S        0.00000000       0.00000000       0.00000000       0.00000000       0.00000000     -27.07566071
S        0.00000000       0.00000000       1.53212121       0.00000000       0.00000000      27.07566071
2
Properties=species:S:1:pos:R:3:forces:R:3 energy=-5.006875865429227 pbc="F F F"
S        0.00000000       0.00000000       0.00000000       0.00000000       0.00000000     -19.12249756
S        0.00000000       0.00000000       1.59090909       0.00000000       0.00000000      19.12249756
2
Properties=species:S:1:pos:R:3:forces:R:3 energy=-5.9445235450483835 pbc="F F F"
S        0.00000000       0.00000000       0.00000000       0.00000000       0.00000000     -13.04613686
S        0.00000000       0.00000000       1.64969697       0.00000000       0.00000000      13.04613686
2
Properties=species:S:1:pos:R:3:forces:R:3 energy=-6.569825299385702 pbc="F F F"
S        0.00000000       0.00000000       0.00000000       0.00000000       0.00000000      -8.45403099
S        0.00000000       0.00000000       1.70848485       0.00000000       0.00000000       8.45403099
2
Properties=species:S:1:pos:R:3:forces:R:3 energy=-6.962033504691554 pbc="F F F"
S        0.00000000       0.00000000       0.00000000       0.00000000       0.00000000      -5.05684185
S        0.00000000       0.00000000       1.76727273       0.00000000       0.00000000       5.05684185
2
Properties=species:S:1:pos:R:3:forces:R:3 energy=-7.180144393365535 pbc="F F F"
S        0.00000000       0.00000000       0.00000000       0.00000000       0.00000000      -2.46822619
S        0.00000000       0.00000000       1.82606061       0.00000000       0.00000000       2.46822619
2
Properties=species:S:1:pos:R:3:forces:R:3 energy=-7.26243316306979 pbc="F F F"
S        0.00000000       0.00000000       0.00000000       0.00000000       0.00000000      -0.40738657
S        0.00000000       0.00000000       1.88484848       0.00000000       0.00000000       0.40738657
2
Properties=species:S:1:pos:R:3:forces:R:3 energy=-7.236600108277799 pbc="F F F"
S        0.00000000       0.00000000       0.00000000       0.00000000       0.00000000       1.21512198
S        0.00000000       0.00000000       1.94363636       0.00000000       0.00000000      -1.21512198
2
Properties=species:S:1:pos:R:3:forces:R:3 energy=-7.127578841411234 pbc="F F F"
S        0.00000000       0.00000000       0.00000000       0.00000000       0.00000000       2.43066192
S        0.00000000       0.00000000       2.00242424       0.00000000       0.00000000      -2.43066192
2
Properties=species:S:1:pos:R:3:forces:R:3 energy=-6.957347449486206 pbc="F F F"
S        0.00000000       0.00000000       0.00000000       0.00000000       0.00000000       3.31351948
S        0.00000000       0.00000000       2.06121212       0.00000000       0.00000000      -3.31351948
2
Properties=species:S:1:pos:R:3:forces:R:3 energy=-6.742670790546414 pbc="F F F"
S        0.00000000       0.00000000       0.00000000       0.00000000       0.00000000       3.95607615
S        0.00000000       0.00000000       2.12000000       0.00000000       0.00000000      -3.95607615
2
Properties=species:S:1:pos:R:3:forces:R:3 energy=-6.495744526433653 pbc="F F F"
S        0.00000000       0.00000000       0.00000000       0.00000000       0.00000000       4.41722393
S        0.00000000       0.00000000       2.17878788       0.00000000       0.00000000      -4.41722393
2
Properties=species:S:1:pos:R:3:forces:R:3 energy=-6.226178570464964 pbc="F F F"
S        0.00000000       0.00000000       0.00000000       0.00000000       0.00000000       4.73286104
S        0.00000000       0.00000000       2.23757576       0.00000000       0.00000000      -4.73286104
2
Properties=species:S:1:pos:R:3:forces:R:3 energy=-5.941147492374086 pbc="F F F"
S        0.00000000       0.00000000       0.00000000       0.00000000       0.00000000       4.95287561
S        0.00000000       0.00000000       2.29636364       0.00000000       0.00000000      -4.95287561
2
Properties=species:S:1:pos:R:3:forces:R:3 energy=-5.644779106872684 pbc="F F F"
S        0.00000000       0.00000000       0.00000000       0.00000000       0.00000000       5.12354708
S        0.00000000       0.00000000       2.35515152       0.00000000       0.00000000      -5.12354708
2
Properties=species:S:1:pos:R:3:forces:R:3 energy=-5.339606702558484 pbc="F F F"
S        0.00000000       0.00000000       0.00000000       0.00000000       0.00000000       5.24896669
S        0.00000000       0.00000000       2.41393939       0.00000000       0.00000000      -5.24896669
2
Properties=species:S:1:pos:R:3:forces:R:3 energy=-5.029056710713244 pbc="F F F"
S        0.00000000       0.00000000       0.00000000       0.00000000       0.00000000       5.30160046
S        0.00000000       0.00000000       2.47272727       0.00000000       0.00000000      -5.30160046
2
Properties=species:S:1:pos:R:3:forces:R:3 energy=-4.718157142448139 pbc="F F F"
S        0.00000000       0.00000000       0.00000000       0.00000000       0.00000000       5.25839424
S        0.00000000       0.00000000       2.53151515       0.00000000       0.00000000      -5.25839424
2
Properties=species:S:1:pos:R:3:forces:R:3 energy=-4.412784261861692 pbc="F F F"
S        0.00000000       0.00000000       0.00000000       0.00000000       0.00000000       5.11405563
S        0.00000000       0.00000000       2.59030303       0.00000000       0.00000000      -5.11405563
2
Properties=species:S:1:pos:R:3:forces:R:3 energy=-4.118734176892509 pbc="F F F"
S        0.00000000       0.00000000       0.00000000       0.00000000       0.00000000       4.87466097
S        0.00000000       0.00000000       2.64909091       0.00000000       0.00000000      -4.87466097
2
Properties=species:S:1:pos:R:3:forces:R:3 energy=-3.841276938945349 pbc="F F F"
S        0.00000000       0.00000000       0.00000000       0.00000000       0.00000000       4.55206251
S        0.00000000       0.00000000       2.70787879       0.00000000       0.00000000      -4.55206251
2
Properties=species:S:1:pos:R:3:forces:R:3 energy=-3.5848290023835045 pbc="F F F"
S        0.00000000       0.00000000       0.00000000       0.00000000       0.00000000       4.16288853
S        0.00000000       0.00000000       2.76666667       0.00000000       0.00000000      -4.16288853
2
Properties=species:S:1:pos:R:3:forces:R:3 energy=-3.3527262872269454 pbc="F F F"
S        0.00000000       0.00000000       0.00000000       0.00000000       0.00000000       3.72757936
S        0.00000000       0.00000000       2.82545455       0.00000000       0.00000000      -3.72757936
2
Properties=species:S:1:pos:R:3:forces:R:3 energy=-3.1470262600569323 pbc="F F F"
S        0.00000000       0.00000000       0.00000000       0.00000000       0.00000000       3.26829958
S        0.00000000       0.00000000       2.88424242       0.00000000       0.00000000      -3.26829958
2
Properties=species:S:1:pos:R:3:forces:R:3 energy=-2.968499209673974 pbc="F F F"
S        0.00000000       0.00000000       0.00000000       0.00000000       0.00000000       2.80657578
S        0.00000000       0.00000000       2.94303030       0.00000000       0.00000000      -2.80657578
2
Properties=species:S:1:pos:R:3:forces:R:3 energy=-2.816710810352194 pbc="F F F"
S        0.00000000       0.00000000       0.00000000       0.00000000       0.00000000       2.36157632
S        0.00000000       0.00000000       3.00181818       0.00000000       0.00000000      -2.36157632
2
Properties=species:S:1:pos:R:3:forces:R:3 energy=-2.6901948073819373 pbc="F F F"
S        0.00000000       0.00000000       0.00000000       0.00000000       0.00000000       1.94914305
S        0.00000000       0.00000000       3.06060606       0.00000000       0.00000000      -1.94914305
2
Properties=species:S:1:pos:R:3:forces:R:3 energy=-2.5866670772761027 pbc="F F F"
S        0.00000000       0.00000000       0.00000000       0.00000000       0.00000000       1.58109236
S        0.00000000       0.00000000       3.11939394       0.00000000       0.00000000      -1.58109236
2
Properties=species:S:1:pos:R:3:forces:R:3 energy=-2.5032810332652113 pbc="F F F"
S        0.00000000       0.00000000       0.00000000       0.00000000       0.00000000       1.26470077
S        0.00000000       0.00000000       3.17818182       0.00000000       0.00000000      -1.26470077
2
Properties=species:S:1:pos:R:3:forces:R:3 energy=-2.4369005288794323 pbc="F F F"
S        0.00000000       0.00000000       0.00000000       0.00000000       0.00000000       1.00266004
S        0.00000000       0.00000000       3.23696970       0.00000000       0.00000000      -1.00266004
2
Properties=species:S:1:pos:R:3:forces:R:3 energy=-2.384350876202496 pbc="F F F"
S        0.00000000       0.00000000       0.00000000       0.00000000       0.00000000       0.79365736
S        0.00000000       0.00000000       3.29575758       0.00000000       0.00000000      -0.79365736
2
Properties=species:S:1:pos:R:3:forces:R:3 energy=-2.3426289900104504 pbc="F F F"
S        0.00000000       0.00000000       0.00000000       0.00000000       0.00000000       0.63339847
S        0.00000000       0.00000000       3.35454545       0.00000000       0.00000000      -0.63339847
2
Properties=species:S:1:pos:R:3:forces:R:3 energy=-2.309043625413508 pbc="F F F"
S        0.00000000       0.00000000       0.00000000       0.00000000       0.00000000       0.51571554
S        0.00000000       0.00000000       3.41333333       0.00000000       0.00000000      -0.51571554
2
Properties=species:S:1:pos:R:3:forces:R:3 energy=-2.281297994229474 pbc="F F F"
S        0.00000000       0.00000000       0.00000000       0.00000000       0.00000000       0.43351722
S        0.00000000       0.00000000       3.47212121       0.00000000       0.00000000      -0.43351722
2
Properties=species:S:1:pos:R:3:forces:R:3 energy=-2.2575211712958385 pbc="F F F"
S        0.00000000       0.00000000       0.00000000       0.00000000       0.00000000       0.37949753
S        0.00000000       0.00000000       3.53090909       0.00000000       0.00000000      -0.37949753
2
Properties=species:S:1:pos:R:3:forces:R:3 energy=-2.236263992252684 pbc="F F F"
S        0.00000000       0.00000000       0.00000000       0.00000000       0.00000000       0.34664762
S        0.00000000       0.00000000       3.58969697       0.00000000       0.00000000      -0.34664762
2
Properties=species:S:1:pos:R:3:forces:R:3 energy=-2.216472978802459 pbc="F F F"
S        0.00000000       0.00000000       0.00000000       0.00000000       0.00000000       0.32862911
S        0.00000000       0.00000000       3.64848485       0.00000000       0.00000000      -0.32862911
2
Properties=species:S:1:pos:R:3:forces:R:3 energy=-2.197441366282683 pbc="F F F"
S        0.00000000       0.00000000       0.00000000       0.00000000       0.00000000       0.32001778
S        0.00000000       0.00000000       3.70727273       0.00000000       0.00000000      -0.32001778
2
Properties=species:S:1:pos:R:3:forces:R:3 energy=-2.178748903390682 pbc="F F F"
S        0.00000000       0.00000000       0.00000000       0.00000000       0.00000000       0.31644848
S        0.00000000       0.00000000       3.76606061       0.00000000       0.00000000      -0.31644848
2
Properties=species:S:1:pos:R:3:forces:R:3 energy=-2.1602006475488578 pbc="F F F"
S        0.00000000       0.00000000       0.00000000       0.00000000       0.00000000       0.31465709
S        0.00000000       0.00000000       3.82484848       0.00000000       0.00000000      -0.31465709
2
Properties=species:S:1:pos:R:3:forces:R:3 energy=-2.141761978834816 pbc="F F F"
S        0.00000000       0.00000000       0.00000000       0.00000000       0.00000000       0.31242034
S        0.00000000       0.00000000       3.88363636       0.00000000       0.00000000      -0.31242034
2
Properties=species:S:1:pos:R:3:forces:R:3 energy=-2.123502279343723 pbc="F F F"
S        0.00000000       0.00000000       0.00000000       0.00000000       0.00000000       0.30843955
S        0.00000000       0.00000000       3.94242424       0.00000000       0.00000000      -0.30843955
2
Properties=species:S:1:pos:R:3:forces:R:3 energy=-2.105542515194954 pbc="F F F"
S        0.00000000       0.00000000       0.00000000       0.00000000       0.00000000       0.30216852
S        0.00000000       0.00000000       4.00121212       0.00000000       0.00000000      -0.30216852
2
Properties=species:S:1:pos:R:3:forces:R:3 energy=-2.088019434147451 pbc="F F F"
S        0.00000000       0.00000000       0.00000000       0.00000000       0.00000000       0.29362196
S        0.00000000       0.00000000       4.06000000       0.00000000       0.00000000      -0.29362196
2
Properties=species:S:1:pos:R:3:forces:R:3 energy=-2.07105688092641 pbc="F F F"
S        0.00000000       0.00000000       0.00000000       0.00000000       0.00000000       0.28318805
S        0.00000000       0.00000000       4.11878788       0.00000000       0.00000000      -0.28318805
2
Properties=species:S:1:pos:R:3:forces:R:3 energy=-2.054749055653679 pbc="F F F"
S        0.00000000       0.00000000       0.00000000       0.00000000       0.00000000       0.27144369
S        0.00000000       0.00000000       4.17757576       0.00000000       0.00000000      -0.27144369
2
Properties=species:S:1:pos:R:3:forces:R:3 energy=-2.039155009629594 pbc="F F F"
S        0.00000000       0.00000000       0.00000000       0.00000000       0.00000000       0.25900766
S        0.00000000       0.00000000       4.23636364       0.00000000       0.00000000      -0.25900766
2
Properties=species:S:1:pos:R:3:forces:R:3 energy=-2.024298394243112 pbc="F F F"
S        0.00000000       0.00000000       0.00000000       0.00000000       0.00000000       0.24642937
S        0.00000000       0.00000000       4.29515152       0.00000000       0.00000000      -0.24642937
2
Properties=species:S:1:pos:R:3:forces:R:3 energy=-2.0101754159000285 pbc="F F F"
S        0.00000000       0.00000000       0.00000000       0.00000000       0.00000000       0.23413269
S        0.00000000       0.00000000       4.35393939       0.00000000       0.00000000      -0.23413269
2
Properties=species:S:1:pos:R:3:forces:R:3 energy=-1.9967595251990096 pbc="F F F"
S        0.00000000       0.00000000       0.00000000       0.00000000       0.00000000       0.22239268
S        0.00000000       0.00000000       4.41272727       0.00000000       0.00000000      -0.22239268
2
Properties=species:S:1:pos:R:3:forces:R:3 energy=-1.984013346156095 pbc="F F F"
S        0.00000000       0.00000000       0.00000000       0.00000000       0.00000000       0.21136296
S        0.00000000       0.00000000       4.47151515       0.00000000       0.00000000      -0.21136296
2
Properties=species:S:1:pos:R:3:forces:R:3 energy=-1.971892660004454 pbc="F F F"
S        0.00000000       0.00000000       0.00000000       0.00000000       0.00000000       0.20111683
S        0.00000000       0.00000000       4.53030303       0.00000000       0.00000000      -0.20111683
2
Properties=species:S:1:pos:R:3:forces:R:3 energy=-1.9603509398991221 pbc="F F F"
S        0.00000000       0.00000000       0.00000000       0.00000000       0.00000000       0.19168712
S        0.00000000       0.00000000       4.58909091       0.00000000       0.00000000      -0.19168712
2
Properties=species:S:1:pos:R:3:forces:R:3 energy=-1.9493388467373942 pbc="F F F"
S        0.00000000       0.00000000       0.00000000       0.00000000       0.00000000       0.18309753
S        0.00000000       0.00000000       4.64787879       0.00000000       0.00000000      -0.18309753
2
Properties=species:S:1:pos:R:3:forces:R:3 energy=-1.9388058335245215 pbc="F F F"
S        0.00000000       0.00000000       0.00000000       0.00000000       0.00000000       0.17538258
S        0.00000000       0.00000000       4.70666667       0.00000000       0.00000000      -0.17538258
2
Properties=species:S:1:pos:R:3:forces:R:3 energy=-1.9286997081343302 pbc="F F F"
S        0.00000000       0.00000000       0.00000000       0.00000000       0.00000000       0.16859671
S        0.00000000       0.00000000       4.76545455       0.00000000       0.00000000      -0.16859671
2
Properties=species:S:1:pos:R:3:forces:R:3 energy=-1.9189632261330232 pbc="F F F"
S        0.00000000       0.00000000       0.00000000       0.00000000       0.00000000       0.16280028
S        0.00000000       0.00000000       4.82424242       0.00000000       0.00000000      -0.16280028
2
Properties=species:S:1:pos:R:3:forces:R:3 energy=-1.9095381937882234 pbc="F F F"
S        0.00000000       0.00000000       0.00000000       0.00000000       0.00000000       0.15804771
S        0.00000000       0.00000000       4.88303030       0.00000000       0.00000000      -0.15804771
2
Properties=species:S:1:pos:R:3:forces:R:3 energy=-1.9003602450349892 pbc="F F F"
S        0.00000000       0.00000000       0.00000000       0.00000000       0.00000000       0.15433967
S        0.00000000       0.00000000       4.94181818       0.00000000       0.00000000      -0.15433967
2
Properties=species:S:1:pos:R:3:forces:R:3 energy=-1.8913719885517526 pbc="F F F"
S        0.00000000       0.00000000       0.00000000       0.00000000       0.00000000       0.15158100
S        0.00000000       0.00000000       5.00060606       0.00000000       0.00000000      -0.15158100
2
Properties=species:S:1:pos:R:3:forces:R:3 energy=-1.882523416865298 pbc="F F F"
S        0.00000000       0.00000000       0.00000000       0.00000000       0.00000000       0.14954500
S        0.00000000       0.00000000       5.05939394       0.00000000       0.00000000      -0.14954500
2
Properties=species:S:1:pos:R:3:forces:R:3 energy=-1.8737809504176568 pbc="F F F"
S        0.00000000       0.00000000       0.00000000       0.00000000       0.00000000       0.14792687
S        0.00000000       0.00000000       5.11818182       0.00000000       0.00000000      -0.14792687
2
Properties=species:S:1:pos:R:3:forces:R:3 energy=-1.8651272411211726 pbc="F F F"
S        0.00000000       0.00000000       0.00000000       0.00000000       0.00000000       0.14653315
S        0.00000000       0.00000000       5.17696970       0.00000000       0.00000000      -0.14653315
2
Properties=species:S:1:pos:R:3:forces:R:3 energy=-1.8565472296233567 pbc="F F F"
S        0.00000000       0.00000000       0.00000000       0.00000000       0.00000000       0.14545102
S        0.00000000       0.00000000       5.23575758       0.00000000       0.00000000      -0.14545102
2
Properties=species:S:1:pos:R:3:forces:R:3 energy=-1.848018508361367 pbc="F F F"
S        0.00000000       0.00000000       0.00000000       0.00000000       0.00000000       0.14474460
S        0.00000000       0.00000000       5.29454545       0.00000000       0.00000000      -0.14474460
2
Properties=species:S:1:pos:R:3:forces:R:3 energy=-1.839533974494845 pbc="F F F"
S        0.00000000       0.00000000       0.00000000       0.00000000       0.00000000       0.14372167
S        0.00000000       0.00000000       5.35333333       0.00000000       0.00000000      -0.14372167
2
Properties=species:S:1:pos:R:3:forces:R:3 energy=-1.8311523738527298 pbc="F F F"
S        0.00000000       0.00000000       0.00000000       0.00000000       0.00000000       0.14102326
S        0.00000000       0.00000000       5.41212121       0.00000000       0.00000000      -0.14102326
2
Properties=species:S:1:pos:R:3:forces:R:3 energy=-1.8230064265678587 pbc="F F F"
S        0.00000000       0.00000000       0.00000000       0.00000000       0.00000000       0.13562608
S        0.00000000       0.00000000       5.47090909       0.00000000       0.00000000      -0.13562608
2
Properties=species:S:1:pos:R:3:forces:R:3 energy=-1.8152627581044998 pbc="F F F"
S        0.00000000       0.00000000       0.00000000       0.00000000       0.00000000       0.12735364
S        0.00000000       0.00000000       5.52969697       0.00000000       0.00000000      -0.12735364
2
Properties=species:S:1:pos:R:3:forces:R:3 energy=-1.8080789924276361 pbc="F F F"
S        0.00000000       0.00000000       0.00000000       0.00000000       0.00000000       0.11670658
S        0.00000000       0.00000000       5.58848485       0.00000000       0.00000000      -0.11670658
2
Properties=species:S:1:pos:R:3:forces:R:3 energy=-1.8015849266366724 pbc="F F F"
S        0.00000000       0.00000000       0.00000000       0.00000000       0.00000000       0.10376593
S        0.00000000       0.00000000       5.64727273       0.00000000       0.00000000      -0.10376593
2
Properties=species:S:1:pos:R:3:forces:R:3 energy=-1.79595308306596 pbc="F F F"
S        0.00000000       0.00000000       0.00000000       0.00000000       0.00000000       0.08714788
S        0.00000000       0.00000000       5.70606061       0.00000000       0.00000000      -0.08714788
2
Properties=species:S:1:pos:R:3:forces:R:3 energy=-1.7914219644017373 pbc="F F F"
S        0.00000000       0.00000000       0.00000000       0.00000000       0.00000000       0.06605230
S        0.00000000       0.00000000       5.76484848       0.00000000       0.00000000      -0.06605230
2
Properties=species:S:1:pos:R:3:forces:R:3 energy=-1.788227631905683 pbc="F F F"
S        0.00000000       0.00000000       0.00000000       0.00000000       0.00000000       0.04277665
S        0.00000000       0.00000000       5.82363636       0.00000000       0.00000000      -0.04277665
2
Properties=species:S:1:pos:R:3:forces:R:3 energy=-1.7863546605779776 pbc="F F F"
S        0.00000000       0.00000000       0.00000000       0.00000000       0.00000000       0.02185189
S        0.00000000       0.00000000       5.88242424       0.00000000       0.00000000      -0.02185189
2
Properties=species:S:1:pos:R:3:forces:R:3 energy=-1.7855304238430285 pbc="F F F"
S        0.00000000       0.00000000       0.00000000       0.00000000       0.00000000       0.00740089
S        0.00000000       0.00000000       5.94121212       0.00000000       0.00000000      -0.00740089
2
Properties=species:S:1:pos:R:3:forces:R:3 energy=-1.785301504328204 pbc="F F F"
S        0.00000000       0.00000000       0.00000000       0.00000000       0.00000000       0.00211222
S        0.00000000       0.00000000       6.00000000       0.00000000       0.00000000      -0.00211222
