2
Properties=species:S:1:pos:R:3:forces:R:3 energy=1717.2055251344455 pbc="F F F"
S        0.00000000       0.00000000       0.00000000       0.00000000       0.00000000  -24248.37500000
S        0.00000000       0.00000000       0.18000000       0.00000000       0.00000000   24248.37500000
2
Properties=species:S:1:pos:R:3:forces:R:3 energy=817.602131579758 pbc="F F F"
S        0.00000000       0.00000000       0.00000000       0.00000000       0.00000000   -9225.04199219
S        0.00000000       0.00000000       0.23878788       0.00000000       0.00000000    9225.04199219
2
Properties=species:S:1:pos:R:3:forces:R:3 energy=450.09404442472265 pbc="F F F"
S        0.00000000       0.00000000       0.00000000       0.00000000       0.00000000   -4091.35864258
S        0.00000000       0.00000000       0.29757576       0.00000000       0.00000000    4091.35864258
2
Properties=species:S:1:pos:R:3:forces:R:3 energy=279.51387475649176 pbc="F F F"
S        0.00000000       0.00000000       0.00000000       0.00000000       0.00000000   -1994.90161133
S        0.00000000       0.00000000       0.35636364       0.00000000       0.00000000    1994.90161133
2
Properties=species:S:1:pos:R:3:forces:R:3 energy=194.20981288268243 pbc="F F F"
S        0.00000000       0.00000000       0.00000000       0.00000000       0.00000000   -1022.03887939
S        0.00000000       0.00000000       0.41515152       0.00000000       0.00000000    1022.03887939
2
Properties=species:S:1:pos:R:3:forces:R:3 energy=150.12201384526284 pbc="F F F"
S        0.00000000       0.00000000       0.00000000       0.00000000       0.00000000    -531.13720703
S        0.00000000       0.00000000       0.47393939       0.00000000       0.00000000     531.13720703
2
Properties=species:S:1:pos:R:3:forces:R:3 energy=127.30011449772462 pbc="F F F"
S        0.00000000       0.00000000       0.00000000       0.00000000       0.00000000    -271.91436768
S        0.00000000       0.00000000       0.53272727       0.00000000       0.00000000     271.91436768
2
Properties=species:S:1:pos:R:3:forces:R:3 energy=115.78157518305528 pbc="F F F"
S        0.00000000       0.00000000       0.00000000       0.00000000       0.00000000    -136.01129150
S        0.00000000       0.00000000       0.59151515       0.00000000       0.00000000     136.01129150
2
Properties=species:S:1:pos:R:3:forces:R:3 energy=109.68505589974194 pbc="F F F"
S        0.00000000       0.00000000       0.00000000       0.00000000       0.00000000     -83.30828857
S        0.00000000       0.00000000       0.65030303       0.00000000       0.00000000      83.30828857
2
Properties=species:S:1:pos:R:3:forces:R:3 energy=104.81428288208754 pbc="F F F"
S        0.00000000       0.00000000       0.00000000       0.00000000       0.00000000     -90.27261353
S        0.00000000       0.00000000       0.70909091       0.00000000       0.00000000      90.27261353
2
Properties=species:S:1:pos:R:3:forces:R:3 energy=98.39370533215642 pbc="F F F"
S        0.00000000       0.00000000       0.00000000       0.00000000       0.00000000    -131.92013550
S        0.00000000       0.00000000       0.76787879       0.00000000       0.00000000     131.92013550
2
Properties=species:S:1:pos:R:3:forces:R:3 energy=89.09289422982094 pbc="F F F"
S        0.00000000       0.00000000       0.00000000       0.00000000       0.00000000    -184.15507507
S        0.00000000       0.00000000       0.82666667       0.00000000       0.00000000     184.15507507
2
Properties=species:S:1:pos:R:3:forces:R:3 energy=77.08723417259321 pbc="F F F"
S        0.00000000       0.00000000       0.00000000       0.00000000       0.00000000    -218.74465942
S        0.00000000       0.00000000       0.88545455       0.00000000       0.00000000     218.74465942
2
Properties=species:S:1:pos:R:3:forces:R:3 energy=64.11676126625011 pbc="F F F"
S        0.00000000       0.00000000       0.00000000       0.00000000       0.00000000    -217.57518005
S        0.00000000       0.00000000       0.94424242       0.00000000       0.00000000     217.57518005
2
Properties=species:S:1:pos:R:3:forces:R:3 energy=51.775431621653354 pbc="F F F"
S        0.00000000       0.00000000       0.00000000       0.00000000       0.00000000    -201.60668945
S        0.00000000       0.00000000       1.00303030       0.00000000       0.00000000     201.60668945
2
Properties=species:S:1:pos:R:3:forces:R:3 energy=40.48325880592152 pbc="F F F"
S        0.00000000       0.00000000       0.00000000       0.00000000       0.00000000    -181.86459351
S        0.00000000       0.00000000       1.06181818       0.00000000       0.00000000     181.86459351
2
Properties=species:S:1:pos:R:3:forces:R:3 energy=30.45386604015983 pbc="F F F"
S        0.00000000       0.00000000       0.00000000       0.00000000       0.00000000    -159.10325623
S        0.00000000       0.00000000       1.12060606       0.00000000       0.00000000     159.10325623
2
Properties=species:S:1:pos:R:3:forces:R:3 energy=21.788148451919582 pbc="F F F"
S        0.00000000       0.00000000       0.00000000       0.00000000       0.00000000    -135.55465698
S        0.00000000       0.00000000       1.17939394       0.00000000       0.00000000     135.55465698
2
Properties=species:S:1:pos:R:3:forces:R:3 energy=14.547489532498576 pbc="F F F"
S        0.00000000       0.00000000       0.00000000       0.00000000       0.00000000    -110.58837891
S        0.00000000       0.00000000       1.23818182       0.00000000       0.00000000     110.58837891
2
Properties=species:S:1:pos:R:3:forces:R:3 energy=8.764262041671213 pbc="F F F"
S        0.00000000       0.00000000       0.00000000       0.00000000       0.00000000     -86.71404266
S        0.00000000       0.00000000       1.29696970       0.00000000       0.00000000      86.71404266
2
Properties=species:S:1:pos:R:3:forces:R:3 energy=4.2682969585737105 pbc="F F F"
S        0.00000000       0.00000000       0.00000000       0.00000000       0.00000000     -66.96691895
S        0.00000000       0.00000000       1.35575758       0.00000000       0.00000000      66.96691895
2
Properties=species:S:1:pos:R:3:forces:R:3 energy=0.8174091994061176 pbc="F F F"
S        0.00000000       0.00000000       0.00000000       0.00000000       0.00000000     -50.93799973
S        0.00000000       0.00000000       1.41454545       0.00000000       0.00000000      50.93799973
2
Properties=species:S:1:pos:R:3:forces:R:3 energy=-1.7724974926647252 pbc="F F F"
S        0.00000000       0.00000000       0.00000000       0.00000000       0.00000000     -37.60874557
S        0.00000000       0.00000000       1.47333333       0.00000000       0.00000000      37.60874557
2
Properties=species:S:1:pos:R:3:forces:R:3 energy=-3.6597331465249816 pbc="F F F"
S        0.00000000       0.00000000       0.00000000       0.00000000       0.00000000     -27.07566071
S        0.00000000       0.00000000       1.53212121       0.00000000       0.00000000      27.07566071
2
Properties=species:S:1:pos:R:3:forces:R:3 energy=-5.006876342266385 pbc="F F F"
S        0.00000000       0.00000000       0.00000000       0.00000000       0.00000000     -19.12249565
S        0.00000000       0.00000000       1.59090909       0.00000000       0.00000000      19.12249565
2
Properties=species:S:1:pos:R:3:forces:R:3 energy=-5.944524021885542 pbc="F F F"
S        0.00000000       0.00000000       0.00000000       0.00000000       0.00000000     -13.04613686
S        0.00000000       0.00000000       1.64969697       0.00000000       0.00000000      13.04613686
2
Properties=species:S:1:pos:R:3:forces:R:3 energy=-6.569825302553524 pbc="F F F"
S        0.00000000       0.00000000       0.00000000       0.00000000       0.00000000      -8.45402813
S        0.00000000       0.00000000       1.70848485       0.00000000       0.00000000       8.45402813
2
Properties=species:S:1:pos:R:3:forces:R:3 energy=-6.962033024686574 pbc="F F F"
S        0.00000000       0.00000000       0.00000000       0.00000000       0.00000000      -5.05684328
S        0.00000000       0.00000000       1.76727273       0.00000000       0.00000000       5.05684328
2
Properties=species:S:1:pos:R:3:forces:R:3 energy=-7.180143916528377 pbc="F F F"
S        0.00000000       0.00000000       0.00000000       0.00000000       0.00000000      -2.46823192
S        0.00000000       0.00000000       1.82606061       0.00000000       0.00000000       2.46823192
2
Properties=species:S:1:pos:R:3:forces:R:3 energy=-7.262434116744107 pbc="F F F"
S        0.00000000       0.00000000       0.00000000       0.00000000       0.00000000      -0.40738913
S        0.00000000       0.00000000       1.88484848       0.00000000       0.00000000       0.40738913
2
Properties=species:S:1:pos:R:3:forces:R:3 energy=-7.236601061952116 pbc="F F F"
S        0.00000000       0.00000000       0.00000000       0.00000000       0.00000000       1.21512389
S        0.00000000       0.00000000       1.94363636       0.00000000       0.00000000      -1.21512389
2
Properties=species:S:1:pos:R:3:forces:R:3 energy=-7.127579318248392 pbc="F F F"
S        0.00000000       0.00000000       0.00000000       0.00000000       0.00000000       2.43065619
S        0.00000000       0.00000000       2.00242424       0.00000000       0.00000000      -2.43065619
2
Properties=species:S:1:pos:R:3:forces:R:3 energy=-6.957348422167455 pbc="F F F"
S        0.00000000       0.00000000       0.00000000       0.00000000       0.00000000       3.31351852
S        0.00000000       0.00000000       2.06121212       0.00000000       0.00000000      -3.31351852
2
Properties=species:S:1:pos:R:3:forces:R:3 energy=-6.742672221057888 pbc="F F F"
S        0.00000000       0.00000000       0.00000000       0.00000000       0.00000000       3.95607400
S        0.00000000       0.00000000       2.12000000       0.00000000       0.00000000      -3.95607400
2
Properties=species:S:1:pos:R:3:forces:R:3 energy=-6.495745022277744 pbc="F F F"
S        0.00000000       0.00000000       0.00000000       0.00000000       0.00000000       4.41722059
S        0.00000000       0.00000000       2.17878788       0.00000000       0.00000000      -4.41722059
2
Properties=species:S:1:pos:R:3:forces:R:3 energy=-6.2261795241392806 pbc="F F F"
S        0.00000000       0.00000000       0.00000000       0.00000000       0.00000000       4.73285961
S        0.00000000       0.00000000       2.23757576       0.00000000       0.00000000      -4.73285961
2
Properties=species:S:1:pos:R:3:forces:R:3 energy=-5.941148922885561 pbc="F F F"
S        0.00000000       0.00000000       0.00000000       0.00000000       0.00000000       4.95287323
S        0.00000000       0.00000000       2.29636364       0.00000000       0.00000000      -4.95287323
2
Properties=species:S:1:pos:R:3:forces:R:3 energy=-5.644779577374197 pbc="F F F"
S        0.00000000       0.00000000       0.00000000       0.00000000       0.00000000       5.12354755
S        0.00000000       0.00000000       2.35515152       0.00000000       0.00000000      -5.12354755
2
Properties=species:S:1:pos:R:3:forces:R:3 energy=-5.339606677215906 pbc="F F F"
S        0.00000000       0.00000000       0.00000000       0.00000000       0.00000000       5.24897003
S        0.00000000       0.00000000       2.41393939       0.00000000       0.00000000      -5.24897003
2
Properties=species:S:1:pos:R:3:forces:R:3 energy=-5.029058141224718 pbc="F F F"
S        0.00000000       0.00000000       0.00000000       0.00000000       0.00000000       5.30160236
S        0.00000000       0.00000000       2.47272727       0.00000000       0.00000000      -5.30160236
2
Properties=species:S:1:pos:R:3:forces:R:3 energy=-4.7181590466289505 pbc="F F F"
S        0.00000000       0.00000000       0.00000000       0.00000000       0.00000000       5.25839472
S        0.00000000       0.00000000       2.53151515       0.00000000       0.00000000      -5.25839472
2
Properties=species:S:1:pos:R:3:forces:R:3 energy=-4.412785218703831 pbc="F F F"
S        0.00000000       0.00000000       0.00000000       0.00000000       0.00000000       5.11405563
S        0.00000000       0.00000000       2.59030303       0.00000000       0.00000000      -5.11405563
2
Properties=species:S:1:pos:R:3:forces:R:3 energy=-4.118736570581767 pbc="F F F"
S        0.00000000       0.00000000       0.00000000       0.00000000       0.00000000       4.87466383
S        0.00000000       0.00000000       2.64909091       0.00000000       0.00000000      -4.87466383
2
Properties=species:S:1:pos:R:3:forces:R:3 energy=-3.8412778926196656 pbc="F F F"
S        0.00000000       0.00000000       0.00000000       0.00000000       0.00000000       4.55206394
S        0.00000000       0.00000000       2.70787879       0.00000000       0.00000000      -4.55206394
2
Properties=species:S:1:pos:R:3:forces:R:3 energy=-3.584829717639242 pbc="F F F"
S        0.00000000       0.00000000       0.00000000       0.00000000       0.00000000       4.16288996
S        0.00000000       0.00000000       2.76666667       0.00000000       0.00000000      -4.16288996
2
Properties=species:S:1:pos:R:3:forces:R:3 energy=-3.3527262872269454 pbc="F F F"
S        0.00000000       0.00000000       0.00000000       0.00000000       0.00000000       3.72758150
S        0.00000000       0.00000000       2.82545455       0.00000000       0.00000000      -3.72758150
2
Properties=species:S:1:pos:R:3:forces:R:3 energy=-3.1470269753126696 pbc="F F F"
S        0.00000000       0.00000000       0.00000000       0.00000000       0.00000000       3.26830029
S        0.00000000       0.00000000       2.88424242       0.00000000       0.00000000      -3.26830029
2
Properties=species:S:1:pos:R:3:forces:R:3 energy=-2.9685001633482906 pbc="F F F"
S        0.00000000       0.00000000       0.00000000       0.00000000       0.00000000       2.80657816
S        0.00000000       0.00000000       2.94303030       0.00000000       0.00000000      -2.80657816
2
Properties=species:S:1:pos:R:3:forces:R:3 energy=-2.816711045602951 pbc="F F F"
S        0.00000000       0.00000000       0.00000000       0.00000000       0.00000000       2.36157680
S        0.00000000       0.00000000       3.00181818       0.00000000       0.00000000      -2.36157680
2
Properties=species:S:1:pos:R:3:forces:R:3 energy=-2.6901948010462933 pbc="F F F"
S        0.00000000       0.00000000       0.00000000       0.00000000       0.00000000       1.94914317
S        0.00000000       0.00000000       3.06060606       0.00000000       0.00000000      -1.94914317
2
Properties=species:S:1:pos:R:3:forces:R:3 energy=-2.586667315694682 pbc="F F F"
S        0.00000000       0.00000000       0.00000000       0.00000000       0.00000000       1.58109403
S        0.00000000       0.00000000       3.11939394       0.00000000       0.00000000      -1.58109403
2
Properties=species:S:1:pos:R:3:forces:R:3 energy=-2.5032810332652113 pbc="F F F"
S        0.00000000       0.00000000       0.00000000       0.00000000       0.00000000       1.26470149
S        0.00000000       0.00000000       3.17818182       0.00000000       0.00000000      -1.26470149
2
Properties=species:S:1:pos:R:3:forces:R:3 energy=-2.43690052571161 pbc="F F F"
S        0.00000000       0.00000000       0.00000000       0.00000000       0.00000000       1.00266087
S        0.00000000       0.00000000       3.23696970       0.00000000       0.00000000      -1.00266087
2
Properties=species:S:1:pos:R:3:forces:R:3 energy=-2.384351120956719 pbc="F F F"
S        0.00000000       0.00000000       0.00000000       0.00000000       0.00000000       0.79365689
S        0.00000000       0.00000000       3.29575758       0.00000000       0.00000000      -0.79365689
2
Properties=species:S:1:pos:R:3:forces:R:3 energy=-2.342629218925563 pbc="F F F"
S        0.00000000       0.00000000       0.00000000       0.00000000       0.00000000       0.63339877
S        0.00000000       0.00000000       3.35454545       0.00000000       0.00000000      -0.63339877
2
Properties=species:S:1:pos:R:3:forces:R:3 energy=-2.309043863832087 pbc="F F F"
S        0.00000000       0.00000000       0.00000000       0.00000000       0.00000000       0.51571554
S        0.00000000       0.00000000       3.41333333       0.00000000       0.00000000      -0.51571554
2
Properties=species:S:1:pos:R:3:forces:R:3 energy=-2.2812982358158753 pbc="F F F"
S        0.00000000       0.00000000       0.00000000       0.00000000       0.00000000       0.43351728
S        0.00000000       0.00000000       3.47212121       0.00000000       0.00000000      -0.43351728
2
Properties=species:S:1:pos:R:3:forces:R:3 energy=-2.25752093446117 pbc="F F F"
S        0.00000000       0.00000000       0.00000000       0.00000000       0.00000000       0.37949750
S        0.00000000       0.00000000       3.53090909       0.00000000       0.00000000      -0.37949750
2
Properties=species:S:1:pos:R:3:forces:R:3 energy=-2.2362642306712632 pbc="F F F"
S        0.00000000       0.00000000       0.00000000       0.00000000       0.00000000       0.34664789
S        0.00000000       0.00000000       3.58969697       0.00000000       0.00000000      -0.34664789
2
Properties=species:S:1:pos:R:3:forces:R:3 energy=-2.216473447720062 pbc="F F F"
S        0.00000000       0.00000000       0.00000000       0.00000000       0.00000000       0.32862929
S        0.00000000       0.00000000       3.64848485       0.00000000       0.00000000      -0.32862929
2
Properties=species:S:1:pos:R:3:forces:R:3 energy=-2.197441604701262 pbc="F F F"
S        0.00000000       0.00000000       0.00000000       0.00000000       0.00000000       0.32001752
S        0.00000000       0.00000000       3.70727273       0.00000000       0.00000000      -0.32001752
2
Properties=species:S:1:pos:R:3:forces:R:3 energy=-2.178748664972103 pbc="F F F"
S        0.00000000       0.00000000       0.00000000       0.00000000       0.00000000       0.31644845
S        0.00000000       0.00000000       3.76606061       0.00000000       0.00000000      -0.31644845
2
Properties=species:S:1:pos:R:3:forces:R:3 energy=-2.1602006396293025 pbc="F F F"
S        0.00000000       0.00000000       0.00000000       0.00000000       0.00000000       0.31465733
S        0.00000000       0.00000000       3.82484848       0.00000000       0.00000000      -0.31465733
2
Properties=species:S:1:pos:R:3:forces:R:3 energy=-2.141762217253395 pbc="F F F"
S        0.00000000       0.00000000       0.00000000       0.00000000       0.00000000       0.31242025
S        0.00000000       0.00000000       3.88363636       0.00000000       0.00000000      -0.31242025
2
Properties=species:S:1:pos:R:3:forces:R:3 energy=-2.123502279343723 pbc="F F F"
S        0.00000000       0.00000000       0.00000000       0.00000000       0.00000000       0.30843961
S        0.00000000       0.00000000       3.94242424       0.00000000       0.00000000      -0.30843961
2
Properties=species:S:1:pos:R:3:forces:R:3 energy=-2.1055427488618 pbc="F F F"
S        0.00000000       0.00000000       0.00000000       0.00000000       0.00000000       0.30216852
S        0.00000000       0.00000000       4.00121212       0.00000000       0.00000000      -0.30216852
2
Properties=species:S:1:pos:R:3:forces:R:3 energy=-2.088019434147451 pbc="F F F"
S        0.00000000       0.00000000       0.00000000       0.00000000       0.00000000       0.29362252
S        0.00000000       0.00000000       4.06000000       0.00000000       0.00000000      -0.29362252
2
Properties=species:S:1:pos:R:3:forces:R:3 energy=-2.071057119344989 pbc="F F F"
S        0.00000000       0.00000000       0.00000000       0.00000000       0.00000000       0.28318810
S        0.00000000       0.00000000       4.11878788       0.00000000       0.00000000      -0.28318810
2
Properties=species:S:1:pos:R:3:forces:R:3 energy=-2.054749052485857 pbc="F F F"
S        0.00000000       0.00000000       0.00000000       0.00000000       0.00000000       0.27144322
S        0.00000000       0.00000000       4.17757576       0.00000000       0.00000000      -0.27144322
2
Properties=species:S:1:pos:R:3:forces:R:3 energy=-2.039155001710039 pbc="F F F"
S        0.00000000       0.00000000       0.00000000       0.00000000       0.00000000       0.25900698
S        0.00000000       0.00000000       4.23636364       0.00000000       0.00000000      -0.25900698
2
Properties=species:S:1:pos:R:3:forces:R:3 energy=-2.024298394243112 pbc="F F F"
S        0.00000000       0.00000000       0.00000000       0.00000000       0.00000000       0.24642991
S        0.00000000       0.00000000       4.29515152       0.00000000       0.00000000      -0.24642991
2
Properties=species:S:1:pos:R:3:forces:R:3 energy=-2.0101754159000285 pbc="F F F"
S        0.00000000       0.00000000       0.00000000       0.00000000       0.00000000       0.23413268
S        0.00000000       0.00000000       4.35393939       0.00000000       0.00000000      -0.23413268
2
Properties=species:S:1:pos:R:3:forces:R:3 energy=-1.9967595188633653 pbc="F F F"
S        0.00000000       0.00000000       0.00000000       0.00000000       0.00000000       0.22239263
S        0.00000000       0.00000000       4.41272727       0.00000000       0.00000000      -0.22239263
2
Properties=species:S:1:pos:R:3:forces:R:3 energy=-1.9840132277387608 pbc="F F F"
S        0.00000000       0.00000000       0.00000000       0.00000000       0.00000000       0.21136278
S        0.00000000       0.00000000       4.47151515       0.00000000       0.00000000      -0.21136278
2
Properties=species:S:1:pos:R:3:forces:R:3 energy=-1.971892660004454 pbc="F F F"
S        0.00000000       0.00000000       0.00000000       0.00000000       0.00000000       0.20111692
S        0.00000000       0.00000000       4.53030303       0.00000000       0.00000000      -0.20111692
2
Properties=species:S:1:pos:R:3:forces:R:3 energy=-1.9603509343554333 pbc="F F F"
S        0.00000000       0.00000000       0.00000000       0.00000000       0.00000000       0.19168669
S        0.00000000       0.00000000       4.58909091       0.00000000       0.00000000      -0.19168669
2
Properties=species:S:1:pos:R:3:forces:R:3 energy=-1.9493388467373942 pbc="F F F"
S        0.00000000       0.00000000       0.00000000       0.00000000       0.00000000       0.18309793
S        0.00000000       0.00000000       4.64787879       0.00000000       0.00000000      -0.18309793
2
Properties=species:S:1:pos:R:3:forces:R:3 energy=-1.938805715899143 pbc="F F F"
S        0.00000000       0.00000000       0.00000000       0.00000000       0.00000000       0.17538446
S        0.00000000       0.00000000       4.70666667       0.00000000       0.00000000      -0.17538446
2
Properties=species:S:1:pos:R:3:forces:R:3 energy=-1.9286998273436198 pbc="F F F"
S        0.00000000       0.00000000       0.00000000       0.00000000       0.00000000       0.16859734
S        0.00000000       0.00000000       4.76545455       0.00000000       0.00000000      -0.16859734
2
Properties=species:S:1:pos:R:3:forces:R:3 energy=-1.918962987714444 pbc="F F F"
S        0.00000000       0.00000000       0.00000000       0.00000000       0.00000000       0.16280077
S        0.00000000       0.00000000       4.82424242       0.00000000       0.00000000      -0.16280077
2
Properties=species:S:1:pos:R:3:forces:R:3 energy=-1.9095381937882234 pbc="F F F"
S        0.00000000       0.00000000       0.00000000       0.00000000       0.00000000       0.15804775
S        0.00000000       0.00000000       4.88303030       0.00000000       0.00000000      -0.15804775
2
Properties=species:S:1:pos:R:3:forces:R:3 energy=-1.9003602450349892 pbc="F F F"
S        0.00000000       0.00000000       0.00000000       0.00000000       0.00000000       0.15433915
S        0.00000000       0.00000000       4.94181818       0.00000000       0.00000000      -0.15433915
2
Properties=species:S:1:pos:R:3:forces:R:3 energy=-1.8913725845982003 pbc="F F F"
S        0.00000000       0.00000000       0.00000000       0.00000000       0.00000000       0.15157998
S        0.00000000       0.00000000       5.00060606       0.00000000       0.00000000      -0.15157998
2
Properties=species:S:1:pos:R:3:forces:R:3 energy=-1.882523416865298 pbc="F F F"
S        0.00000000       0.00000000       0.00000000       0.00000000       0.00000000       0.14954343
S        0.00000000       0.00000000       5.05939394       0.00000000       0.00000000      -0.14954343
2
Properties=species:S:1:pos:R:3:forces:R:3 energy=-1.8737815464641046 pbc="F F F"
S        0.00000000       0.00000000       0.00000000       0.00000000       0.00000000       0.14792587
S        0.00000000       0.00000000       5.11818182       0.00000000       0.00000000      -0.14792587
2
Properties=species:S:1:pos:R:3:forces:R:3 energy=-1.8651273575586178 pbc="F F F"
S        0.00000000       0.00000000       0.00000000       0.00000000       0.00000000       0.14653330
S        0.00000000       0.00000000       5.17696970       0.00000000       0.00000000      -0.14653330
2
Properties=species:S:1:pos:R:3:forces:R:3 energy=-1.8565472296233567 pbc="F F F"
S        0.00000000       0.00000000       0.00000000       0.00000000       0.00000000       0.14545208
S        0.00000000       0.00000000       5.23575758       0.00000000       0.00000000      -0.14545208
2
Properties=species:S:1:pos:R:3:forces:R:3 energy=-1.8480180315242087 pbc="F F F"
S        0.00000000       0.00000000       0.00000000       0.00000000       0.00000000       0.14474568
S        0.00000000       0.00000000       5.29454545       0.00000000       0.00000000      -0.14474568
2
Properties=species:S:1:pos:R:3:forces:R:3 energy=-1.8395338533056667 pbc="F F F"
S        0.00000000       0.00000000       0.00000000       0.00000000       0.00000000       0.14372014
S        0.00000000       0.00000000       5.35333333       0.00000000       0.00000000      -0.14372014
2
Properties=species:S:1:pos:R:3:forces:R:3 energy=-1.831153566737581 pbc="F F F"
S        0.00000000       0.00000000       0.00000000       0.00000000       0.00000000       0.14102088
S        0.00000000       0.00000000       5.41212121       0.00000000       0.00000000      -0.14102088
2
Properties=species:S:1:pos:R:3:forces:R:3 energy=-1.8230065457771483 pbc="F F F"
S        0.00000000       0.00000000       0.00000000       0.00000000       0.00000000       0.13562411
S        0.00000000       0.00000000       5.47090909       0.00000000       0.00000000      -0.13562411
2
Properties=species:S:1:pos:R:3:forces:R:3 energy=-1.8152627561246109 pbc="F F F"
S        0.00000000       0.00000000       0.00000000       0.00000000       0.00000000       0.12735517
S        0.00000000       0.00000000       5.52969697       0.00000000       0.00000000      -0.12735517
2
Properties=species:S:1:pos:R:3:forces:R:3 energy=-1.8080789924276361 pbc="F F F"
S        0.00000000       0.00000000       0.00000000       0.00000000       0.00000000       0.11670329
S        0.00000000       0.00000000       5.58848485       0.00000000       0.00000000      -0.11670329
2
Properties=species:S:1:pos:R:3:forces:R:3 energy=-1.801588979752517 pbc="F F F"
S        0.00000000       0.00000000       0.00000000       0.00000000       0.00000000       0.10375937
S        0.00000000       0.00000000       5.64727273       0.00000000       0.00000000      -0.10375937
2
Properties=species:S:1:pos:R:3:forces:R:3 energy=-1.7959530814820488 pbc="F F F"
S        0.00000000       0.00000000       0.00000000       0.00000000       0.00000000       0.08715135
S        0.00000000       0.00000000       5.70606061       0.00000000       0.00000000      -0.08715135
2
Properties=species:S:1:pos:R:3:forces:R:3 energy=-1.7914219644017373 pbc="F F F"
S        0.00000000       0.00000000       0.00000000       0.00000000       0.00000000       0.06604726
S        0.00000000       0.00000000       5.76484848       0.00000000       0.00000000      -0.06604726
2
Properties=species:S:1:pos:R:3:forces:R:3 energy=-1.7882247708827337 pbc="F F F"
S        0.00000000       0.00000000       0.00000000       0.00000000       0.00000000       0.04277890
S        0.00000000       0.00000000       5.82363636       0.00000000       0.00000000      -0.04277890
2
Properties=species:S:1:pos:R:3:forces:R:3 energy=-1.786354659984011 pbc="F F F"
S        0.00000000       0.00000000       0.00000000       0.00000000       0.00000000       0.02185308
S        0.00000000       0.00000000       5.88242424       0.00000000       0.00000000      -0.02185308
2
Properties=species:S:1:pos:R:3:forces:R:3 energy=-1.7855304238430285 pbc="F F F"
S        0.00000000       0.00000000       0.00000000       0.00000000       0.00000000       0.00740884
S        0.00000000       0.00000000       5.94121212       0.00000000       0.00000000      -0.00740884
2
Properties=species:S:1:pos:R:3:forces:R:3 energy=-1.785301504328204 pbc="F F F"
S        0.00000000       0.00000000       0.00000000       0.00000000       0.00000000       0.00211222
S        0.00000000       0.00000000       6.00000000       0.00000000       0.00000000      -0.00211222
