2
Properties=species:S:1:pos:R:3:forces:R:3 energy=43591.73091832607 pbc="F F F"
Sb       0.00000000       0.00000000       0.00000000       0.00000000       0.00000000 -1053562.12500000
Sb       0.00000000       0.00000000       0.10000000       0.00000000       0.00000000 1053562.12500000
2
Properties=species:S:1:pos:R:3:forces:R:3 energy=12690.363730826073 pbc="F F F"
Sb       0.00000000       0.00000000       0.00000000       0.00000000       0.00000000 -228529.45312500
Sb       0.00000000       0.00000000       0.15959596       0.00000000       0.00000000  228529.45312500
2
Properties=species:S:1:pos:R:3:forces:R:3 energy=4815.374961294823 pbc="F F F"
Sb       0.00000000       0.00000000       0.00000000       0.00000000       0.00000000  -71322.17968750
Sb       0.00000000       0.00000000       0.21919192       0.00000000       0.00000000   71322.17968750
2
Properties=species:S:1:pos:R:3:forces:R:3 energy=2120.568076529198 pbc="F F F"
Sb       0.00000000       0.00000000       0.00000000       0.00000000       0.00000000  -27222.84375000
Sb       0.00000000       0.00000000       0.27878788       0.00000000       0.00000000   27222.84375000
2
Properties=species:S:1:pos:R:3:forces:R:3 energy=1032.8723978245962 pbc="F F F"
Sb       0.00000000       0.00000000       0.00000000       0.00000000       0.00000000  -11718.34179688
Sb       0.00000000       0.00000000       0.33838384       0.00000000       0.00000000   11718.34179688
2
Properties=species:S:1:pos:R:3:forces:R:3 energy=547.3131937230337 pbc="F F F"
Sb       0.00000000       0.00000000       0.00000000       0.00000000       0.00000000   -5454.60498047
Sb       0.00000000       0.00000000       0.39797980       0.00000000       0.00000000    5454.60498047
2
Properties=species:S:1:pos:R:3:forces:R:3 energy=315.4365763040643 pbc="F F F"
Sb       0.00000000       0.00000000       0.00000000       0.00000000       0.00000000   -2681.96386719
Sb       0.00000000       0.00000000       0.45757576       0.00000000       0.00000000    2681.96386719
2
Properties=species:S:1:pos:R:3:forces:R:3 energy=199.36228128546162 pbc="F F F"
Sb       0.00000000       0.00000000       0.00000000       0.00000000       0.00000000   -1368.83361816
Sb       0.00000000       0.00000000       0.51717172       0.00000000       0.00000000    1368.83361816
2
Properties=species:S:1:pos:R:3:forces:R:3 energy=139.50215864914705 pbc="F F F"
Sb       0.00000000       0.00000000       0.00000000       0.00000000       0.00000000    -712.93695068
Sb       0.00000000       0.00000000       0.57676768       0.00000000       0.00000000     712.93695068
2
Properties=species:S:1:pos:R:3:forces:R:3 energy=108.18900259724509 pbc="F F F"
Sb       0.00000000       0.00000000       0.00000000       0.00000000       0.00000000    -374.50646973
Sb       0.00000000       0.00000000       0.63636364       0.00000000       0.00000000     374.50646973
2
Properties=species:S:1:pos:R:3:forces:R:3 energy=91.71755191195828 pbc="F F F"
Sb       0.00000000       0.00000000       0.00000000       0.00000000       0.00000000    -196.75384521
Sb       0.00000000       0.00000000       0.69595960       0.00000000       0.00000000     196.75384521
2
Properties=species:S:1:pos:R:3:forces:R:3 energy=83.13932027783288 pbc="F F F"
Sb       0.00000000       0.00000000       0.00000000       0.00000000       0.00000000    -101.01186371
Sb       0.00000000       0.00000000       0.75555556       0.00000000       0.00000000     101.01186371
2
Properties=species:S:1:pos:R:3:forces:R:3 energy=78.72798174411324 pbc="F F F"
Sb       0.00000000       0.00000000       0.00000000       0.00000000       0.00000000     -53.65569305
Sb       0.00000000       0.00000000       0.81515152       0.00000000       0.00000000      53.65569305
2
Properties=species:S:1:pos:R:3:forces:R:3 energy=76.0642171833099 pbc="F F F"
Sb       0.00000000       0.00000000       0.00000000       0.00000000       0.00000000     -40.62003708
Sb       0.00000000       0.00000000       0.87474747       0.00000000       0.00000000      40.62003708
2
Properties=species:S:1:pos:R:3:forces:R:3 energy=73.40950124914738 pbc="F F F"
Sb       0.00000000       0.00000000       0.00000000       0.00000000       0.00000000     -51.48679733
Sb       0.00000000       0.00000000       0.93434343       0.00000000       0.00000000      51.48679733
2
Properties=species:S:1:pos:R:3:forces:R:3 energy=69.6899127823619 pbc="F F F"
Sb       0.00000000       0.00000000       0.00000000       0.00000000       0.00000000     -74.40114594
Sb       0.00000000       0.00000000       0.99393939       0.00000000       0.00000000      74.40114594
2
Properties=species:S:1:pos:R:3:forces:R:3 energy=64.49946888145415 pbc="F F F"
Sb       0.00000000       0.00000000       0.00000000       0.00000000       0.00000000     -99.57217407
Sb       0.00000000       0.00000000       1.05353535       0.00000000       0.00000000      99.57217407
2
Properties=species:S:1:pos:R:3:forces:R:3 energy=57.914356749905274 pbc="F F F"
Sb       0.00000000       0.00000000       0.00000000       0.00000000       0.00000000    -119.72637939
Sb       0.00000000       0.00000000       1.11313131       0.00000000       0.00000000     119.72637939
2
Properties=species:S:1:pos:R:3:forces:R:3 energy=50.663691015220635 pbc="F F F"
Sb       0.00000000       0.00000000       0.00000000       0.00000000       0.00000000    -117.91159058
Sb       0.00000000       0.00000000       1.17272727       0.00000000       0.00000000     117.91159058
2
Properties=species:S:1:pos:R:3:forces:R:3 energy=44.307599043406974 pbc="F F F"
Sb       0.00000000       0.00000000       0.00000000       0.00000000       0.00000000     -96.14697266
Sb       0.00000000       0.00000000       1.23232323       0.00000000       0.00000000      96.14697266
2
Properties=species:S:1:pos:R:3:forces:R:3 energy=38.98475284251282 pbc="F F F"
Sb       0.00000000       0.00000000       0.00000000       0.00000000       0.00000000     -84.61827850
Sb       0.00000000       0.00000000       1.29191919       0.00000000       0.00000000      84.61827850
2
Properties=species:S:1:pos:R:3:forces:R:3 energy=34.01157024601414 pbc="F F F"
Sb       0.00000000       0.00000000       0.00000000       0.00000000       0.00000000     -81.84396362
Sb       0.00000000       0.00000000       1.35151515       0.00000000       0.00000000      81.84396362
2
Properties=species:S:1:pos:R:3:forces:R:3 energy=29.35420744350399 pbc="F F F"
Sb       0.00000000       0.00000000       0.00000000       0.00000000       0.00000000     -74.36346436
Sb       0.00000000       0.00000000       1.41111111       0.00000000       0.00000000      74.36346436
2
Properties=species:S:1:pos:R:3:forces:R:3 energy=25.07418426052574 pbc="F F F"
Sb       0.00000000       0.00000000       0.00000000       0.00000000       0.00000000     -69.87956238
Sb       0.00000000       0.00000000       1.47070707       0.00000000       0.00000000      69.87956238
2
Properties=species:S:1:pos:R:3:forces:R:3 energy=20.998706589457196 pbc="F F F"
Sb       0.00000000       0.00000000       0.00000000       0.00000000       0.00000000     -66.81952667
Sb       0.00000000       0.00000000       1.53030303       0.00000000       0.00000000      66.81952667
2
Properties=species:S:1:pos:R:3:forces:R:3 energy=17.129561882064372 pbc="F F F"
Sb       0.00000000       0.00000000       0.00000000       0.00000000       0.00000000     -62.85129929
Sb       0.00000000       0.00000000       1.58989899       0.00000000       0.00000000      62.85129929
2
Properties=species:S:1:pos:R:3:forces:R:3 energy=13.523447346914146 pbc="F F F"
Sb       0.00000000       0.00000000       0.00000000       0.00000000       0.00000000     -58.07202530
Sb       0.00000000       0.00000000       1.64949495       0.00000000       0.00000000      58.07202530
2
Properties=species:S:1:pos:R:3:forces:R:3 energy=10.216805129109831 pbc="F F F"
Sb       0.00000000       0.00000000       0.00000000       0.00000000       0.00000000     -52.82507706
Sb       0.00000000       0.00000000       1.70909091       0.00000000       0.00000000      52.82507706
2
Properties=species:S:1:pos:R:3:forces:R:3 energy=7.236811531117326 pbc="F F F"
Sb       0.00000000       0.00000000       0.00000000       0.00000000       0.00000000     -47.09184647
Sb       0.00000000       0.00000000       1.76868687       0.00000000       0.00000000      47.09184647
2
Properties=species:S:1:pos:R:3:forces:R:3 energy=4.6140408413414 pbc="F F F"
Sb       0.00000000       0.00000000       0.00000000       0.00000000       0.00000000     -40.85486984
Sb       0.00000000       0.00000000       1.82828283       0.00000000       0.00000000      40.85486984
2
Properties=species:S:1:pos:R:3:forces:R:3 energy=2.372706654942705 pbc="F F F"
Sb       0.00000000       0.00000000       0.00000000       0.00000000       0.00000000     -34.35050964
Sb       0.00000000       0.00000000       1.88787879       0.00000000       0.00000000      34.35050964
2
Properties=species:S:1:pos:R:3:forces:R:3 energy=0.5164861696949736 pbc="F F F"
Sb       0.00000000       0.00000000       0.00000000       0.00000000       0.00000000     -28.00982285
Sb       0.00000000       0.00000000       1.94747475       0.00000000       0.00000000      28.00982285
2
Properties=species:S:1:pos:R:3:forces:R:3 energy=-0.9778896404933207 pbc="F F F"
Sb       0.00000000       0.00000000       0.00000000       0.00000000       0.00000000     -22.26868057
Sb       0.00000000       0.00000000       2.00707071       0.00000000       0.00000000      22.26868057
2
Properties=species:S:1:pos:R:3:forces:R:3 energy=-2.1549077871331175 pbc="F F F"
Sb       0.00000000       0.00000000       0.00000000       0.00000000       0.00000000     -17.38283920
Sb       0.00000000       0.00000000       2.06666667       0.00000000       0.00000000      17.38283920
2
Properties=species:S:1:pos:R:3:forces:R:3 energy=-3.0675441118878237 pbc="F F F"
Sb       0.00000000       0.00000000       0.00000000       0.00000000       0.00000000     -13.38705730
Sb       0.00000000       0.00000000       2.12626263       0.00000000       0.00000000      13.38705730
2
Properties=species:S:1:pos:R:3:forces:R:3 energy=-3.7663058197676746 pbc="F F F"
Sb       0.00000000       0.00000000       0.00000000       0.00000000       0.00000000     -10.18386745
Sb       0.00000000       0.00000000       2.18585859       0.00000000       0.00000000      10.18386745
2
Properties=species:S:1:pos:R:3:forces:R:3 energy=-4.294371265709595 pbc="F F F"
Sb       0.00000000       0.00000000       0.00000000       0.00000000       0.00000000      -7.63490391
Sb       0.00000000       0.00000000       2.24545455       0.00000000       0.00000000       7.63490391
2
Properties=species:S:1:pos:R:3:forces:R:3 energy=-4.686598171301999 pbc="F F F"
Sb       0.00000000       0.00000000       0.00000000       0.00000000       0.00000000      -5.60353088
Sb       0.00000000       0.00000000       2.30505051       0.00000000       0.00000000       5.60353088
2
Properties=species:S:1:pos:R:3:forces:R:3 energy=-4.970152805079399 pbc="F F F"
Sb       0.00000000       0.00000000       0.00000000       0.00000000       0.00000000      -3.97010970
Sb       0.00000000       0.00000000       2.36464646       0.00000000       0.00000000       3.97010970
2
Properties=species:S:1:pos:R:3:forces:R:3 energy=-5.165865179068594 pbc="F F F"
Sb       0.00000000       0.00000000       0.00000000       0.00000000       0.00000000      -2.64304590
Sb       0.00000000       0.00000000       2.42424242       0.00000000       0.00000000       2.64304590
2
Properties=species:S:1:pos:R:3:forces:R:3 energy=-5.2900929989044405 pbc="F F F"
Sb       0.00000000       0.00000000       0.00000000       0.00000000       0.00000000      -1.56406701
Sb       0.00000000       0.00000000       2.48383838       0.00000000       0.00000000       1.56406701
2
Properties=species:S:1:pos:R:3:forces:R:3 energy=-5.356572281512128 pbc="F F F"
Sb       0.00000000       0.00000000       0.00000000       0.00000000       0.00000000      -0.70106244
Sb       0.00000000       0.00000000       2.54343434       0.00000000       0.00000000       0.70106244
2
Properties=species:S:1:pos:R:3:forces:R:3 energy=-5.377501256652933 pbc="F F F"
Sb       0.00000000       0.00000000       0.00000000       0.00000000       0.00000000      -0.03139573
Sb       0.00000000       0.00000000       2.60303030       0.00000000       0.00000000       0.03139573
2
Properties=species:S:1:pos:R:3:forces:R:3 energy=-5.363584681101702 pbc="F F F"
Sb       0.00000000       0.00000000       0.00000000       0.00000000       0.00000000       0.47411036
Sb       0.00000000       0.00000000       2.66262626       0.00000000       0.00000000      -0.47411036
2
Properties=species:S:1:pos:R:3:forces:R:3 energy=-5.323453108008967 pbc="F F F"
Sb       0.00000000       0.00000000       0.00000000       0.00000000       0.00000000       0.85574019
Sb       0.00000000       0.00000000       2.72222222       0.00000000       0.00000000      -0.85574019
2
Properties=species:S:1:pos:R:3:forces:R:3 energy=-5.263190818114321 pbc="F F F"
Sb       0.00000000       0.00000000       0.00000000       0.00000000       0.00000000       1.15630078
Sb       0.00000000       0.00000000       2.78181818       0.00000000       0.00000000      -1.15630078
2
Properties=species:S:1:pos:R:3:forces:R:3 energy=-5.1865852245870885 pbc="F F F"
Sb       0.00000000       0.00000000       0.00000000       0.00000000       0.00000000       1.40824318
Sb       0.00000000       0.00000000       2.84141414       0.00000000       0.00000000      -1.40824318
2
Properties=species:S:1:pos:R:3:forces:R:3 energy=-5.095984899478912 pbc="F F F"
Sb       0.00000000       0.00000000       0.00000000       0.00000000       0.00000000       1.62726188
Sb       0.00000000       0.00000000       2.90101010       0.00000000       0.00000000      -1.62726188
2
Properties=species:S:1:pos:R:3:forces:R:3 energy=-4.993226868277155 pbc="F F F"
Sb       0.00000000       0.00000000       0.00000000       0.00000000       0.00000000       1.81600964
Sb       0.00000000       0.00000000       2.96060606       0.00000000       0.00000000      -1.81600964
2
Properties=species:S:1:pos:R:3:forces:R:3 energy=-4.8801811356049605 pbc="F F F"
Sb       0.00000000       0.00000000       0.00000000       0.00000000       0.00000000       1.97205651
Sb       0.00000000       0.00000000       3.02020202       0.00000000       0.00000000      -1.97205651
2
Properties=species:S:1:pos:R:3:forces:R:3 energy=-4.758873691545279 pbc="F F F"
Sb       0.00000000       0.00000000       0.00000000       0.00000000       0.00000000       2.09290075
Sb       0.00000000       0.00000000       3.07979798       0.00000000       0.00000000      -2.09290075
2
Properties=species:S:1:pos:R:3:forces:R:3 energy=-4.631463082943969 pbc="F F F"
Sb       0.00000000       0.00000000       0.00000000       0.00000000       0.00000000       2.17653680
Sb       0.00000000       0.00000000       3.13939394       0.00000000       0.00000000      -2.17653680
2
Properties=species:S:1:pos:R:3:forces:R:3 energy=-4.500228685717994 pbc="F F F"
Sb       0.00000000       0.00000000       0.00000000       0.00000000       0.00000000       2.22086596
Sb       0.00000000       0.00000000       3.19898990       0.00000000       0.00000000      -2.22086596
2
Properties=species:S:1:pos:R:3:forces:R:3 energy=-4.367563969905686 pbc="F F F"
Sb       0.00000000       0.00000000       0.00000000       0.00000000       0.00000000       2.22451019
Sb       0.00000000       0.00000000       3.25858586       0.00000000       0.00000000      -2.22451019
2
Properties=species:S:1:pos:R:3:forces:R:3 energy=-4.235872466192656 pbc="F F F"
Sb       0.00000000       0.00000000       0.00000000       0.00000000       0.00000000       2.18862605
Sb       0.00000000       0.00000000       3.31818182       0.00000000       0.00000000      -2.18862605
2
Properties=species:S:1:pos:R:3:forces:R:3 energy=-4.10739857664958 pbc="F F F"
Sb       0.00000000       0.00000000       0.00000000       0.00000000       0.00000000       2.11749363
Sb       0.00000000       0.00000000       3.37777778       0.00000000       0.00000000      -2.11749363
2
Properties=species:S:1:pos:R:3:forces:R:3 energy=-3.984063102680356 pbc="F F F"
Sb       0.00000000       0.00000000       0.00000000       0.00000000       0.00000000       2.01728845
Sb       0.00000000       0.00000000       3.43737374       0.00000000       0.00000000      -2.01728845
2
Properties=species:S:1:pos:R:3:forces:R:3 energy=-3.867398467265403 pbc="F F F"
Sb       0.00000000       0.00000000       0.00000000       0.00000000       0.00000000       1.89468741
Sb       0.00000000       0.00000000       3.49696970       0.00000000       0.00000000      -1.89468741
2
Properties=species:S:1:pos:R:3:forces:R:3 energy=-3.7585409706317785 pbc="F F F"
Sb       0.00000000       0.00000000       0.00000000       0.00000000       0.00000000       1.75642276
Sb       0.00000000       0.00000000       3.55656566       0.00000000       0.00000000      -1.75642276
2
Properties=species:S:1:pos:R:3:forces:R:3 energy=-3.6582245861207543 pbc="F F F"
Sb       0.00000000       0.00000000       0.00000000       0.00000000       0.00000000       1.60922122
Sb       0.00000000       0.00000000       3.61616162       0.00000000       0.00000000      -1.60922122
2
Properties=species:S:1:pos:R:3:forces:R:3 energy=-3.566783401456251 pbc="F F F"
Sb       0.00000000       0.00000000       0.00000000       0.00000000       0.00000000       1.45961070
Sb       0.00000000       0.00000000       3.67575758       0.00000000       0.00000000      -1.45961070
2
Properties=species:S:1:pos:R:3:forces:R:3 energy=-3.484179984507137 pbc="F F F"
Sb       0.00000000       0.00000000       0.00000000       0.00000000       0.00000000       1.31352615
Sb       0.00000000       0.00000000       3.73535354       0.00000000       0.00000000      -1.31352615
2
Properties=species:S:1:pos:R:3:forces:R:3 energy=-3.4100534893151635 pbc="F F F"
Sb       0.00000000       0.00000000       0.00000000       0.00000000       0.00000000       1.17583168
Sb       0.00000000       0.00000000       3.79494949       0.00000000       0.00000000      -1.17583168
2
Properties=species:S:1:pos:R:3:forces:R:3 energy=-3.343796112271274 pbc="F F F"
Sb       0.00000000       0.00000000       0.00000000       0.00000000       0.00000000       1.04987514
Sb       0.00000000       0.00000000       3.85454545       0.00000000       0.00000000      -1.04987514
2
Properties=species:S:1:pos:R:3:forces:R:3 energy=-3.284648979742145 pbc="F F F"
Sb       0.00000000       0.00000000       0.00000000       0.00000000       0.00000000       0.93736523
Sb       0.00000000       0.00000000       3.91414141       0.00000000       0.00000000      -0.93736523
2
Properties=species:S:1:pos:R:3:forces:R:3 energy=-3.2317984191630584 pbc="F F F"
Sb       0.00000000       0.00000000       0.00000000       0.00000000       0.00000000       0.83845222
Sb       0.00000000       0.00000000       3.97373737       0.00000000       0.00000000      -0.83845222
2
Properties=species:S:1:pos:R:3:forces:R:3 energy=-3.1844623821091176 pbc="F F F"
Sb       0.00000000       0.00000000       0.00000000       0.00000000       0.00000000       0.75208783
Sb       0.00000000       0.00000000       4.03333333       0.00000000       0.00000000      -0.75208783
2
Properties=species:S:1:pos:R:3:forces:R:3 energy=-3.1419430896198026 pbc="F F F"
Sb       0.00000000       0.00000000       0.00000000       0.00000000       0.00000000       0.67641878
Sb       0.00000000       0.00000000       4.09292929       0.00000000       0.00000000      -0.67641878
2
Properties=species:S:1:pos:R:3:forces:R:3 energy=-3.1036692219520847 pbc="F F F"
Sb       0.00000000       0.00000000       0.00000000       0.00000000       0.00000000       0.60925484
Sb       0.00000000       0.00000000       4.15252525       0.00000000       0.00000000      -0.60925484
2
Properties=species:S:1:pos:R:3:forces:R:3 energy=-3.0691995265373375 pbc="F F F"
Sb       0.00000000       0.00000000       0.00000000       0.00000000       0.00000000       0.54842246
Sb       0.00000000       0.00000000       4.21212121       0.00000000       0.00000000      -0.54842246
2
Properties=species:S:1:pos:R:3:forces:R:3 energy=-3.0382132463921248 pbc="F F F"
Sb       0.00000000       0.00000000       0.00000000       0.00000000       0.00000000       0.49205321
Sb       0.00000000       0.00000000       4.27171717       0.00000000       0.00000000      -0.49205321
2
Properties=species:S:1:pos:R:3:forces:R:3 energy=-3.0104898798815594 pbc="F F F"
Sb       0.00000000       0.00000000       0.00000000       0.00000000       0.00000000       0.43877342
Sb       0.00000000       0.00000000       4.33131313       0.00000000       0.00000000      -0.43877342
2
Properties=species:S:1:pos:R:3:forces:R:3 energy=-2.985870480881752 pbc="F F F"
Sb       0.00000000       0.00000000       0.00000000       0.00000000       0.00000000       0.38777632
Sb       0.00000000       0.00000000       4.39090909       0.00000000       0.00000000      -0.38777632
2
Properties=species:S:1:pos:R:3:forces:R:3 energy=-2.9642293891711287 pbc="F F F"
Sb       0.00000000       0.00000000       0.00000000       0.00000000       0.00000000       0.33883065
Sb       0.00000000       0.00000000       4.45050505       0.00000000       0.00000000      -0.33883065
2
Properties=species:S:1:pos:R:3:forces:R:3 energy=-2.9454389318094334 pbc="F F F"
Sb       0.00000000       0.00000000       0.00000000       0.00000000       0.00000000       0.29220051
Sb       0.00000000       0.00000000       4.51010101       0.00000000       0.00000000      -0.29220051
2
Properties=species:S:1:pos:R:3:forces:R:3 energy=-2.929343242275455 pbc="F F F"
Sb       0.00000000       0.00000000       0.00000000       0.00000000       0.00000000       0.24849378
Sb       0.00000000       0.00000000       4.56969697       0.00000000       0.00000000      -0.24849378
2
Properties=species:S:1:pos:R:3:forces:R:3 energy=-2.915746546278431 pbc="F F F"
Sb       0.00000000       0.00000000       0.00000000       0.00000000       0.00000000       0.20848686
Sb       0.00000000       0.00000000       4.62929293       0.00000000       0.00000000      -0.20848686
2
Properties=species:S:1:pos:R:3:forces:R:3 energy=-2.904405415154095 pbc="F F F"
Sb       0.00000000       0.00000000       0.00000000       0.00000000       0.00000000       0.17292421
Sb       0.00000000       0.00000000       4.68888889       0.00000000       0.00000000      -0.17292421
2
Properties=species:S:1:pos:R:3:forces:R:3 energy=-2.8950360649737874 pbc="F F F"
Sb       0.00000000       0.00000000       0.00000000       0.00000000       0.00000000       0.14235656
Sb       0.00000000       0.00000000       4.74848485       0.00000000       0.00000000      -0.14235656
2
Properties=species:S:1:pos:R:3:forces:R:3 energy=-2.8873323575631376 pbc="F F F"
Sb       0.00000000       0.00000000       0.00000000       0.00000000       0.00000000       0.11707069
Sb       0.00000000       0.00000000       4.80808081       0.00000000       0.00000000      -0.11707069
2
Properties=species:S:1:pos:R:3:forces:R:3 energy=-2.880977519442393 pbc="F F F"
Sb       0.00000000       0.00000000       0.00000000       0.00000000       0.00000000       0.09705217
Sb       0.00000000       0.00000000       4.86767677       0.00000000       0.00000000      -0.09705217
2
Properties=species:S:1:pos:R:3:forces:R:3 energy=-2.875664534950448 pbc="F F F"
Sb       0.00000000       0.00000000       0.00000000       0.00000000       0.00000000       0.08205308
Sb       0.00000000       0.00000000       4.92727273       0.00000000       0.00000000      -0.08205308
2
Properties=species:S:1:pos:R:3:forces:R:3 energy=-2.871106360229877 pbc="F F F"
Sb       0.00000000       0.00000000       0.00000000       0.00000000       0.00000000       0.07163387
Sb       0.00000000       0.00000000       4.98686869       0.00000000       0.00000000      -0.07163387
2
Properties=species:S:1:pos:R:3:forces:R:3 energy=-2.8670478948410487 pbc="F F F"
Sb       0.00000000       0.00000000       0.00000000       0.00000000       0.00000000       0.06517868
Sb       0.00000000       0.00000000       5.04646465       0.00000000       0.00000000      -0.06517868
2
Properties=species:S:1:pos:R:3:forces:R:3 energy=-2.8632763818966698 pbc="F F F"
Sb       0.00000000       0.00000000       0.00000000       0.00000000       0.00000000       0.06179779
Sb       0.00000000       0.00000000       5.10606061       0.00000000       0.00000000      -0.06179779
2
Properties=species:S:1:pos:R:3:forces:R:3 energy=-2.8596455865407644 pbc="F F F"
Sb       0.00000000       0.00000000       0.00000000       0.00000000       0.00000000       0.06020561
Sb       0.00000000       0.00000000       5.16565657       0.00000000       0.00000000      -0.06020561
2
Properties=species:S:1:pos:R:3:forces:R:3 energy=-2.8560941525953534 pbc="F F F"
Sb       0.00000000       0.00000000       0.00000000       0.00000000       0.00000000       0.05893512
Sb       0.00000000       0.00000000       5.22525253       0.00000000       0.00000000      -0.05893512
2
Properties=species:S:1:pos:R:3:forces:R:3 energy=-2.8526310621949493 pbc="F F F"
Sb       0.00000000       0.00000000       0.00000000       0.00000000       0.00000000       0.05724014
Sb       0.00000000       0.00000000       5.28484848       0.00000000       0.00000000      -0.05724014
2
Properties=species:S:1:pos:R:3:forces:R:3 energy=-2.8492677609353354 pbc="F F F"
Sb       0.00000000       0.00000000       0.00000000       0.00000000       0.00000000       0.05574330
Sb       0.00000000       0.00000000       5.34444444       0.00000000       0.00000000      -0.05574330
2
Properties=species:S:1:pos:R:3:forces:R:3 energy=-2.8459683537331095 pbc="F F F"
Sb       0.00000000       0.00000000       0.00000000       0.00000000       0.00000000       0.05508699
Sb       0.00000000       0.00000000       5.40404040       0.00000000       0.00000000      -0.05508699
2
Properties=species:S:1:pos:R:3:forces:R:3 energy=-2.842708060143163 pbc="F F F"
Sb       0.00000000       0.00000000       0.00000000       0.00000000       0.00000000       0.05403699
Sb       0.00000000       0.00000000       5.46363636       0.00000000       0.00000000      -0.05403699
2
Properties=species:S:1:pos:R:3:forces:R:3 energy=-2.8395877091296247 pbc="F F F"
Sb       0.00000000       0.00000000       0.00000000       0.00000000       0.00000000       0.05002680
Sb       0.00000000       0.00000000       5.52323232       0.00000000       0.00000000      -0.05002680
2
Properties=species:S:1:pos:R:3:forces:R:3 energy=-2.836841180726971 pbc="F F F"
Sb       0.00000000       0.00000000       0.00000000       0.00000000       0.00000000       0.04133393
Sb       0.00000000       0.00000000       5.58282828       0.00000000       0.00000000      -0.04133393
2
Properties=species:S:1:pos:R:3:forces:R:3 energy=-2.834735503903645 pbc="F F F"
Sb       0.00000000       0.00000000       0.00000000       0.00000000       0.00000000       0.02900467
Sb       0.00000000       0.00000000       5.64242424       0.00000000       0.00000000      -0.02900467
2
Properties=species:S:1:pos:R:3:forces:R:3 energy=-2.8333771133321353 pbc="F F F"
Sb       0.00000000       0.00000000       0.00000000       0.00000000       0.00000000       0.01701419
Sb       0.00000000       0.00000000       5.70202020       0.00000000       0.00000000      -0.01701419
2
Properties=species:S:1:pos:R:3:forces:R:3 energy=-2.832619124360596 pbc="F F F"
Sb       0.00000000       0.00000000       0.00000000       0.00000000       0.00000000       0.00932398
Sb       0.00000000       0.00000000       5.76161616       0.00000000       0.00000000      -0.00932398
2
Properties=species:S:1:pos:R:3:forces:R:3 energy=-2.8321633777486093 pbc="F F F"
Sb       0.00000000       0.00000000       0.00000000       0.00000000       0.00000000       0.00671333
Sb       0.00000000       0.00000000       5.82121212       0.00000000       0.00000000      -0.00671333
2
Properties=species:S:1:pos:R:3:forces:R:3 energy=-2.8317567310176988 pbc="F F F"
Sb       0.00000000       0.00000000       0.00000000       0.00000000       0.00000000       0.00719736
Sb       0.00000000       0.00000000       5.88080808       0.00000000       0.00000000      -0.00719736
2
Properties=species:S:1:pos:R:3:forces:R:3 energy=-2.8312954691579075 pbc="F F F"
Sb       0.00000000       0.00000000       0.00000000       0.00000000       0.00000000       0.00824793
Sb       0.00000000       0.00000000       5.94040404       0.00000000       0.00000000      -0.00824793
2
Properties=species:S:1:pos:R:3:forces:R:3 energy=-2.8307929319701075 pbc="F F F"
Sb       0.00000000       0.00000000       0.00000000       0.00000000       0.00000000       0.00839876
Sb       0.00000000       0.00000000       6.00000000       0.00000000       0.00000000      -0.00839876
