2
Properties=species:S:1:pos:R:3:forces:R:3 energy=2485.98582586702 pbc="F F F"
Sc       0.00000000       0.00000000       0.00000000       0.00000000       0.00000000  -37524.94531250
Sc       0.00000000       0.00000000       0.18000000       0.00000000       0.00000000   37524.94531250
2
Properties=species:S:1:pos:R:3:forces:R:3 energy=1107.7510846560826 pbc="F F F"
Sc       0.00000000       0.00000000       0.00000000       0.00000000       0.00000000  -13958.03906250
Sc       0.00000000       0.00000000       0.23878788       0.00000000       0.00000000   13958.03906250
2
Properties=species:S:1:pos:R:3:forces:R:3 energy=555.7744000921059 pbc="F F F"
Sc       0.00000000       0.00000000       0.00000000       0.00000000       0.00000000   -6093.74609375
Sc       0.00000000       0.00000000       0.29757576       0.00000000       0.00000000    6093.74609375
2
Properties=species:S:1:pos:R:3:forces:R:3 energy=302.64390692804335 pbc="F F F"
Sc       0.00000000       0.00000000       0.00000000       0.00000000       0.00000000   -2954.35034180
Sc       0.00000000       0.00000000       0.35636364       0.00000000       0.00000000    2954.35034180
2
Properties=species:S:1:pos:R:3:forces:R:3 energy=175.72046027593774 pbc="F F F"
Sc       0.00000000       0.00000000       0.00000000       0.00000000       0.00000000   -1537.90393066
Sc       0.00000000       0.00000000       0.41515152       0.00000000       0.00000000    1537.90393066
2
Properties=species:S:1:pos:R:3:forces:R:3 energy=108.04833351542167 pbc="F F F"
Sc       0.00000000       0.00000000       0.00000000       0.00000000       0.00000000    -842.00042725
Sc       0.00000000       0.00000000       0.47393939       0.00000000       0.00000000     842.00042725
2
Properties=species:S:1:pos:R:3:forces:R:3 energy=70.34046305103017 pbc="F F F"
Sc       0.00000000       0.00000000       0.00000000       0.00000000       0.00000000    -478.25189209
Sc       0.00000000       0.00000000       0.53272727       0.00000000       0.00000000     478.25189209
2
Properties=species:S:1:pos:R:3:forces:R:3 energy=48.65898648652299 pbc="F F F"
Sc       0.00000000       0.00000000       0.00000000       0.00000000       0.00000000    -278.39184570
Sc       0.00000000       0.00000000       0.59151515       0.00000000       0.00000000     278.39184570
2
Properties=species:S:1:pos:R:3:forces:R:3 energy=35.968076194684855 pbc="F F F"
Sc       0.00000000       0.00000000       0.00000000       0.00000000       0.00000000    -163.48829651
Sc       0.00000000       0.00000000       0.65030303       0.00000000       0.00000000     163.48829651
2
Properties=species:S:1:pos:R:3:forces:R:3 energy=28.537328291208386 pbc="F F F"
Sc       0.00000000       0.00000000       0.00000000       0.00000000       0.00000000     -95.12290955
Sc       0.00000000       0.00000000       0.70909091       0.00000000       0.00000000      95.12290955
2
Properties=species:S:1:pos:R:3:forces:R:3 energy=24.237580944544614 pbc="F F F"
Sc       0.00000000       0.00000000       0.00000000       0.00000000       0.00000000     -54.90653610
Sc       0.00000000       0.00000000       0.76787879       0.00000000       0.00000000      54.90653610
2
Properties=species:S:1:pos:R:3:forces:R:3 energy=21.725675451776638 pbc="F F F"
Sc       0.00000000       0.00000000       0.00000000       0.00000000       0.00000000     -32.89073944
Sc       0.00000000       0.00000000       0.82666667       0.00000000       0.00000000      32.89073944
2
Properties=species:S:1:pos:R:3:forces:R:3 energy=20.16606343420031 pbc="F F F"
Sc       0.00000000       0.00000000       0.00000000       0.00000000       0.00000000     -21.42541695
Sc       0.00000000       0.00000000       0.88545455       0.00000000       0.00000000      21.42541695
2
Properties=species:S:1:pos:R:3:forces:R:3 energy=19.089575297291166 pbc="F F F"
Sc       0.00000000       0.00000000       0.00000000       0.00000000       0.00000000     -16.04673576
Sc       0.00000000       0.00000000       0.94424242       0.00000000       0.00000000      16.04673576
2
Properties=species:S:1:pos:R:3:forces:R:3 energy=18.18654920432523 pbc="F F F"
Sc       0.00000000       0.00000000       0.00000000       0.00000000       0.00000000     -15.41482544
Sc       0.00000000       0.00000000       1.00303030       0.00000000       0.00000000      15.41482544
2
Properties=species:S:1:pos:R:3:forces:R:3 energy=17.19710895159913 pbc="F F F"
Sc       0.00000000       0.00000000       0.00000000       0.00000000       0.00000000     -18.85056114
Sc       0.00000000       0.00000000       1.06181818       0.00000000       0.00000000      18.85056114
2
Properties=species:S:1:pos:R:3:forces:R:3 energy=15.913270606484645 pbc="F F F"
Sc       0.00000000       0.00000000       0.00000000       0.00000000       0.00000000     -25.15418243
Sc       0.00000000       0.00000000       1.12060606       0.00000000       0.00000000      25.15418243
2
Properties=species:S:1:pos:R:3:forces:R:3 energy=14.2238472448014 pbc="F F F"
Sc       0.00000000       0.00000000       0.00000000       0.00000000       0.00000000     -32.25580597
Sc       0.00000000       0.00000000       1.17939394       0.00000000       0.00000000      32.25580597
2
Properties=species:S:1:pos:R:3:forces:R:3 energy=12.149147430809352 pbc="F F F"
Sc       0.00000000       0.00000000       0.00000000       0.00000000       0.00000000     -37.93457413
Sc       0.00000000       0.00000000       1.23818182       0.00000000       0.00000000      37.93457413
2
Properties=species:S:1:pos:R:3:forces:R:3 energy=9.821895042489164 pbc="F F F"
Sc       0.00000000       0.00000000       0.00000000       0.00000000       0.00000000     -40.68807602
Sc       0.00000000       0.00000000       1.29696970       0.00000000       0.00000000      40.68807602
2
Properties=species:S:1:pos:R:3:forces:R:3 energy=7.425857493601086 pbc="F F F"
Sc       0.00000000       0.00000000       0.00000000       0.00000000       0.00000000     -40.40417480
Sc       0.00000000       0.00000000       1.35575758       0.00000000       0.00000000      40.40417480
2
Properties=species:S:1:pos:R:3:forces:R:3 energy=5.107435343511227 pbc="F F F"
Sc       0.00000000       0.00000000       0.00000000       0.00000000       0.00000000     -38.23988342
Sc       0.00000000       0.00000000       1.41454545       0.00000000       0.00000000      38.23988342
2
Properties=species:S:1:pos:R:3:forces:R:3 energy=2.9574108781241732 pbc="F F F"
Sc       0.00000000       0.00000000       0.00000000       0.00000000       0.00000000     -34.64487457
Sc       0.00000000       0.00000000       1.47333333       0.00000000       0.00000000      34.64487457
2
Properties=species:S:1:pos:R:3:forces:R:3 energy=1.0611986369580833 pbc="F F F"
Sc       0.00000000       0.00000000       0.00000000       0.00000000       0.00000000     -29.72287178
Sc       0.00000000       0.00000000       1.53212121       0.00000000       0.00000000      29.72287178
2
Properties=species:S:1:pos:R:3:forces:R:3 energy=-0.5350169043804818 pbc="F F F"
Sc       0.00000000       0.00000000       0.00000000       0.00000000       0.00000000     -24.66427231
Sc       0.00000000       0.00000000       1.59090909       0.00000000       0.00000000      24.66427231
2
Properties=species:S:1:pos:R:3:forces:R:3 energy=-1.8532847602751954 pbc="F F F"
Sc       0.00000000       0.00000000       0.00000000       0.00000000       0.00000000     -20.31178284
Sc       0.00000000       0.00000000       1.64969697       0.00000000       0.00000000      20.31178284
2
Properties=species:S:1:pos:R:3:forces:R:3 energy=-2.935370401996183 pbc="F F F"
Sc       0.00000000       0.00000000       0.00000000       0.00000000       0.00000000     -16.57748222
Sc       0.00000000       0.00000000       1.70848485       0.00000000       0.00000000      16.57748222
2
Properties=species:S:1:pos:R:3:forces:R:3 energy=-3.809063225881391 pbc="F F F"
Sc       0.00000000       0.00000000       0.00000000       0.00000000       0.00000000     -13.19271278
Sc       0.00000000       0.00000000       1.76727273       0.00000000       0.00000000      13.19271278
2
Properties=species:S:1:pos:R:3:forces:R:3 energy=-4.492242652322457 pbc="F F F"
Sc       0.00000000       0.00000000       0.00000000       0.00000000       0.00000000     -10.10634327
Sc       0.00000000       0.00000000       1.82606061       0.00000000       0.00000000      10.10634327
2
Properties=species:S:1:pos:R:3:forces:R:3 energy=-5.0054427555410435 pbc="F F F"
Sc       0.00000000       0.00000000       0.00000000       0.00000000       0.00000000      -7.43396091
Sc       0.00000000       0.00000000       1.88484848       0.00000000       0.00000000       7.43396091
2
Properties=species:S:1:pos:R:3:forces:R:3 energy=-5.3769664348093285 pbc="F F F"
Sc       0.00000000       0.00000000       0.00000000       0.00000000       0.00000000      -5.30405712
Sc       0.00000000       0.00000000       1.94363636       0.00000000       0.00000000       5.30405712
2
Properties=species:S:1:pos:R:3:forces:R:3 energy=-5.641209636781762 pbc="F F F"
Sc       0.00000000       0.00000000       0.00000000       0.00000000       0.00000000      -3.79081440
Sc       0.00000000       0.00000000       2.00242424       0.00000000       0.00000000       3.79081440
2
Properties=species:S:1:pos:R:3:forces:R:3 energy=-5.834610289550976 pbc="F F F"
Sc       0.00000000       0.00000000       0.00000000       0.00000000       0.00000000      -2.88254023
Sc       0.00000000       0.00000000       2.06121212       0.00000000       0.00000000       2.88254023
2
Properties=species:S:1:pos:R:3:forces:R:3 energy=-5.989501127080481 pbc="F F F"
Sc       0.00000000       0.00000000       0.00000000       0.00000000       0.00000000      -2.44948959
Sc       0.00000000       0.00000000       2.12000000       0.00000000       0.00000000       2.44948959
2
Properties=species:S:1:pos:R:3:forces:R:3 energy=-6.1276499983972545 pbc="F F F"
Sc       0.00000000       0.00000000       0.00000000       0.00000000       0.00000000      -2.27355981
Sc       0.00000000       0.00000000       2.17878788       0.00000000       0.00000000       2.27355981
2
Properties=species:S:1:pos:R:3:forces:R:3 energy=-6.257488163582726 pbc="F F F"
Sc       0.00000000       0.00000000       0.00000000       0.00000000       0.00000000      -2.13452315
Sc       0.00000000       0.00000000       2.23757576       0.00000000       0.00000000       2.13452315
2
Properties=species:S:1:pos:R:3:forces:R:3 energy=-6.376363265318077 pbc="F F F"
Sc       0.00000000       0.00000000       0.00000000       0.00000000       0.00000000      -1.88383079
Sc       0.00000000       0.00000000       2.29636364       0.00000000       0.00000000       1.88383079
2
Properties=species:S:1:pos:R:3:forces:R:3 energy=-6.475725523698607 pbc="F F F"
Sc       0.00000000       0.00000000       0.00000000       0.00000000       0.00000000      -1.46976173
Sc       0.00000000       0.00000000       2.35515152       0.00000000       0.00000000       1.46976173
2
Properties=species:S:1:pos:R:3:forces:R:3 energy=-6.546494308542425 pbc="F F F"
Sc       0.00000000       0.00000000       0.00000000       0.00000000       0.00000000      -0.92052770
Sc       0.00000000       0.00000000       2.41393939       0.00000000       0.00000000       0.92052770
2
Properties=species:S:1:pos:R:3:forces:R:3 energy=-6.582713080049274 pbc="F F F"
Sc       0.00000000       0.00000000       0.00000000       0.00000000       0.00000000      -0.30797693
Sc       0.00000000       0.00000000       2.47272727       0.00000000       0.00000000       0.30797693
2
Properties=species:S:1:pos:R:3:forces:R:3 energy=-6.583062761755153 pbc="F F F"
Sc       0.00000000       0.00000000       0.00000000       0.00000000       0.00000000       0.28673679
Sc       0.00000000       0.00000000       2.53151515       0.00000000       0.00000000      -0.28673679
2
Properties=species:S:1:pos:R:3:forces:R:3 energy=-6.550697164549085 pbc="F F F"
Sc       0.00000000       0.00000000       0.00000000       0.00000000       0.00000000       0.79563493
Sc       0.00000000       0.00000000       2.59030303       0.00000000       0.00000000      -0.79563493
2
Properties=species:S:1:pos:R:3:forces:R:3 energy=-6.492061471935004 pbc="F F F"
Sc       0.00000000       0.00000000       0.00000000       0.00000000       0.00000000       1.17563665
Sc       0.00000000       0.00000000       2.64909091       0.00000000       0.00000000      -1.17563665
2
Properties=species:S:1:pos:R:3:forces:R:3 energy=-6.415302200578415 pbc="F F F"
Sc       0.00000000       0.00000000       0.00000000       0.00000000       0.00000000       1.41194153
Sc       0.00000000       0.00000000       2.70787879       0.00000000       0.00000000      -1.41194153
2
Properties=species:S:1:pos:R:3:forces:R:3 energy=-6.32869009484571 pbc="F F F"
Sc       0.00000000       0.00000000       0.00000000       0.00000000       0.00000000       1.51408005
Sc       0.00000000       0.00000000       2.76666667       0.00000000       0.00000000      -1.51408005
2
Properties=species:S:1:pos:R:3:forces:R:3 energy=-6.239423616976304 pbc="F F F"
Sc       0.00000000       0.00000000       0.00000000       0.00000000       0.00000000       1.50718975
Sc       0.00000000       0.00000000       2.82545455       0.00000000       0.00000000      -1.50718975
2
Properties=species:S:1:pos:R:3:forces:R:3 energy=-6.153006812027985 pbc="F F F"
Sc       0.00000000       0.00000000       0.00000000       0.00000000       0.00000000       1.42234790
Sc       0.00000000       0.00000000       2.88424242       0.00000000       0.00000000      -1.42234790
2
Properties=species:S:1:pos:R:3:forces:R:3 energy=-6.073139564940685 pbc="F F F"
Sc       0.00000000       0.00000000       0.00000000       0.00000000       0.00000000       1.28885305
Sc       0.00000000       0.00000000       2.94303030       0.00000000       0.00000000      -1.28885305
2
Properties=species:S:1:pos:R:3:forces:R:3 energy=-6.001952723178066 pbc="F F F"
Sc       0.00000000       0.00000000       0.00000000       0.00000000       0.00000000       1.13050079
Sc       0.00000000       0.00000000       3.00181818       0.00000000       0.00000000      -1.13050079
2
Properties=species:S:1:pos:R:3:forces:R:3 energy=-5.940322078117428 pbc="F F F"
Sc       0.00000000       0.00000000       0.00000000       0.00000000       0.00000000       0.96702844
Sc       0.00000000       0.00000000       3.06060606       0.00000000       0.00000000      -0.96702844
2
Properties=species:S:1:pos:R:3:forces:R:3 energy=-5.887914362890355 pbc="F F F"
Sc       0.00000000       0.00000000       0.00000000       0.00000000       0.00000000       0.82129264
Sc       0.00000000       0.00000000       3.11939394       0.00000000       0.00000000      -0.82129264
2
Properties=species:S:1:pos:R:3:forces:R:3 energy=-5.842763699785474 pbc="F F F"
Sc       0.00000000       0.00000000       0.00000000       0.00000000       0.00000000       0.72625792
Sc       0.00000000       0.00000000       3.17818182       0.00000000       0.00000000      -0.72625792
2
Properties=species:S:1:pos:R:3:forces:R:3 energy=-5.800948018617981 pbc="F F F"
Sc       0.00000000       0.00000000       0.00000000       0.00000000       0.00000000       0.71007878
Sc       0.00000000       0.00000000       3.23696970       0.00000000       0.00000000      -0.71007878
2
Properties=species:S:1:pos:R:3:forces:R:3 energy=-5.757960305198569 pbc="F F F"
Sc       0.00000000       0.00000000       0.00000000       0.00000000       0.00000000       0.75962853
Sc       0.00000000       0.00000000       3.29575758       0.00000000       0.00000000      -0.75962853
2
Properties=species:S:1:pos:R:3:forces:R:3 energy=-5.711301790680857 pbc="F F F"
Sc       0.00000000       0.00000000       0.00000000       0.00000000       0.00000000       0.82686758
Sc       0.00000000       0.00000000       3.35454545       0.00000000       0.00000000      -0.82686758
2
Properties=species:S:1:pos:R:3:forces:R:3 energy=-5.661074706232241 pbc="F F F"
Sc       0.00000000       0.00000000       0.00000000       0.00000000       0.00000000       0.87813085
Sc       0.00000000       0.00000000       3.41333333       0.00000000       0.00000000      -0.87813085
2
Properties=species:S:1:pos:R:3:forces:R:3 energy=-5.608479931093979 pbc="F F F"
Sc       0.00000000       0.00000000       0.00000000       0.00000000       0.00000000       0.90797895
Sc       0.00000000       0.00000000       3.47212121       0.00000000       0.00000000      -0.90797895
2
Properties=species:S:1:pos:R:3:forces:R:3 energy=-5.5546274182341255 pbc="F F F"
Sc       0.00000000       0.00000000       0.00000000       0.00000000       0.00000000       0.92203385
Sc       0.00000000       0.00000000       3.53090909       0.00000000       0.00000000      -0.92203385
2
Properties=species:S:1:pos:R:3:forces:R:3 energy=-5.500269653689271 pbc="F F F"
Sc       0.00000000       0.00000000       0.00000000       0.00000000       0.00000000       0.92590827
Sc       0.00000000       0.00000000       3.58969697       0.00000000       0.00000000      -0.92590827
2
Properties=species:S:1:pos:R:3:forces:R:3 energy=-5.44588556483412 pbc="F F F"
Sc       0.00000000       0.00000000       0.00000000       0.00000000       0.00000000       0.92349255
Sc       0.00000000       0.00000000       3.64848485       0.00000000       0.00000000      -0.92349255
2
Properties=species:S:1:pos:R:3:forces:R:3 energy=-5.39175868490298 pbc="F F F"
Sc       0.00000000       0.00000000       0.00000000       0.00000000       0.00000000       0.91752231
Sc       0.00000000       0.00000000       3.70727273       0.00000000       0.00000000      -0.91752231
2
Properties=species:S:1:pos:R:3:forces:R:3 energy=-5.338038320118745 pbc="F F F"
Sc       0.00000000       0.00000000       0.00000000       0.00000000       0.00000000       0.90988153
Sc       0.00000000       0.00000000       3.76606061       0.00000000       0.00000000      -0.90988153
2
Properties=species:S:1:pos:R:3:forces:R:3 energy=-5.28479097297899 pbc="F F F"
Sc       0.00000000       0.00000000       0.00000000       0.00000000       0.00000000       0.90159738
Sc       0.00000000       0.00000000       3.82484848       0.00000000       0.00000000      -0.90159738
2
Properties=species:S:1:pos:R:3:forces:R:3 energy=-5.232042010568066 pbc="F F F"
Sc       0.00000000       0.00000000       0.00000000       0.00000000       0.00000000       0.89281565
Sc       0.00000000       0.00000000       3.88363636       0.00000000       0.00000000      -0.89281565
2
Properties=species:S:1:pos:R:3:forces:R:3 energy=-5.179838509724078 pbc="F F F"
Sc       0.00000000       0.00000000       0.00000000       0.00000000       0.00000000       0.88292289
Sc       0.00000000       0.00000000       3.94242424       0.00000000       0.00000000      -0.88292289
2
Properties=species:S:1:pos:R:3:forces:R:3 energy=-5.128275421070278 pbc="F F F"
Sc       0.00000000       0.00000000       0.00000000       0.00000000       0.00000000       0.87081248
Sc       0.00000000       0.00000000       4.00121212       0.00000000       0.00000000      -0.87081248
2
Properties=species:S:1:pos:R:3:forces:R:3 energy=-5.077520318533948 pbc="F F F"
Sc       0.00000000       0.00000000       0.00000000       0.00000000       0.00000000       0.85522586
Sc       0.00000000       0.00000000       4.06000000       0.00000000       0.00000000      -0.85522586
2
Properties=species:S:1:pos:R:3:forces:R:3 energy=-5.02781148399829 pbc="F F F"
Sc       0.00000000       0.00000000       0.00000000       0.00000000       0.00000000       0.83507937
Sc       0.00000000       0.00000000       4.11878788       0.00000000       0.00000000      -0.83507937
2
Properties=species:S:1:pos:R:3:forces:R:3 energy=-4.979438280951201 pbc="F F F"
Sc       0.00000000       0.00000000       0.00000000       0.00000000       0.00000000       0.80969173
Sc       0.00000000       0.00000000       4.17757576       0.00000000       0.00000000      -0.80969173
2
Properties=species:S:1:pos:R:3:forces:R:3 energy=-4.932715977150558 pbc="F F F"
Sc       0.00000000       0.00000000       0.00000000       0.00000000       0.00000000       0.77893209
Sc       0.00000000       0.00000000       4.23636364       0.00000000       0.00000000      -0.77893209
2
Properties=species:S:1:pos:R:3:forces:R:3 energy=-4.887949511335837 pbc="F F F"
Sc       0.00000000       0.00000000       0.00000000       0.00000000       0.00000000       0.74328148
Sc       0.00000000       0.00000000       4.29515152       0.00000000       0.00000000      -0.74328148
2
Properties=species:S:1:pos:R:3:forces:R:3 energy=-4.845400241339923 pbc="F F F"
Sc       0.00000000       0.00000000       0.00000000       0.00000000       0.00000000       0.70381528
Sc       0.00000000       0.00000000       4.35393939       0.00000000       0.00000000      -0.70381528
2
Properties=species:S:1:pos:R:3:forces:R:3 energy=-4.805243640294401 pbc="F F F"
Sc       0.00000000       0.00000000       0.00000000       0.00000000       0.00000000       0.66210771
Sc       0.00000000       0.00000000       4.41272727       0.00000000       0.00000000      -0.66210771
2
Properties=species:S:1:pos:R:3:forces:R:3 energy=-4.76755841173829 pbc="F F F"
Sc       0.00000000       0.00000000       0.00000000       0.00000000       0.00000000       0.62007242
Sc       0.00000000       0.00000000       4.47151515       0.00000000       0.00000000      -0.62007242
2
Properties=species:S:1:pos:R:3:forces:R:3 energy=-4.732304002243874 pbc="F F F"
Sc       0.00000000       0.00000000       0.00000000       0.00000000       0.00000000       0.57972825
Sc       0.00000000       0.00000000       4.53030303       0.00000000       0.00000000      -0.57972825
2
Properties=species:S:1:pos:R:3:forces:R:3 energy=-4.699326947683416 pbc="F F F"
Sc       0.00000000       0.00000000       0.00000000       0.00000000       0.00000000       0.54292852
Sc       0.00000000       0.00000000       4.58909091       0.00000000       0.00000000      -0.54292852
2
Properties=species:S:1:pos:R:3:forces:R:3 energy=-4.66837229197838 pbc="F F F"
Sc       0.00000000       0.00000000       0.00000000       0.00000000       0.00000000       0.51107138
Sc       0.00000000       0.00000000       4.64787879       0.00000000       0.00000000      -0.51107138
2
Properties=species:S:1:pos:R:3:forces:R:3 energy=-4.639125841872819 pbc="F F F"
Sc       0.00000000       0.00000000       0.00000000       0.00000000       0.00000000       0.48482481
Sc       0.00000000       0.00000000       4.70666667       0.00000000       0.00000000      -0.48482481
2
Properties=species:S:1:pos:R:3:forces:R:3 energy=-4.611262939035888 pbc="F F F"
Sc       0.00000000       0.00000000       0.00000000       0.00000000       0.00000000       0.46392924
Sc       0.00000000       0.00000000       4.76545455       0.00000000       0.00000000      -0.46392924
2
Properties=species:S:1:pos:R:3:forces:R:3 energy=-4.584498559641668 pbc="F F F"
Sc       0.00000000       0.00000000       0.00000000       0.00000000       0.00000000       0.44709897
Sc       0.00000000       0.00000000       4.82424242       0.00000000       0.00000000      -0.44709897
2
Properties=species:S:1:pos:R:3:forces:R:3 energy=-4.558658961983978 pbc="F F F"
Sc       0.00000000       0.00000000       0.00000000       0.00000000       0.00000000       0.43213817
Sc       0.00000000       0.00000000       4.88303030       0.00000000       0.00000000      -0.43213817
2
Properties=species:S:1:pos:R:3:forces:R:3 energy=-4.533706813125942 pbc="F F F"
Sc       0.00000000       0.00000000       0.00000000       0.00000000       0.00000000       0.41633850
Sc       0.00000000       0.00000000       4.94181818       0.00000000       0.00000000      -0.41633850
2
Properties=species:S:1:pos:R:3:forces:R:3 energy=-4.509771083921136 pbc="F F F"
Sc       0.00000000       0.00000000       0.00000000       0.00000000       0.00000000       0.39724669
Sc       0.00000000       0.00000000       5.00060606       0.00000000       0.00000000      -0.39724669
2
Properties=species:S:1:pos:R:3:forces:R:3 energy=-4.487083095813585 pbc="F F F"
Sc       0.00000000       0.00000000       0.00000000       0.00000000       0.00000000       0.37399000
Sc       0.00000000       0.00000000       5.05939394       0.00000000       0.00000000      -0.37399000
2
Properties=species:S:1:pos:R:3:forces:R:3 energy=-4.465837520470253 pbc="F F F"
Sc       0.00000000       0.00000000       0.00000000       0.00000000       0.00000000       0.34888721
Sc       0.00000000       0.00000000       5.11818182       0.00000000       0.00000000      -0.34888721
2
Properties=species:S:1:pos:R:3:forces:R:3 energy=-4.445984955617217 pbc="F F F"
Sc       0.00000000       0.00000000       0.00000000       0.00000000       0.00000000       0.32778886
Sc       0.00000000       0.00000000       5.17696970       0.00000000       0.00000000      -0.32778886
2
Properties=species:S:1:pos:R:3:forces:R:3 energy=-4.427110719702465 pbc="F F F"
Sc       0.00000000       0.00000000       0.00000000       0.00000000       0.00000000       0.31601870
Sc       0.00000000       0.00000000       5.23575758       0.00000000       0.00000000      -0.31601870
2
Properties=species:S:1:pos:R:3:forces:R:3 energy=-4.408698561851313 pbc="F F F"
Sc       0.00000000       0.00000000       0.00000000       0.00000000       0.00000000       0.31055701
Sc       0.00000000       0.00000000       5.29454545       0.00000000       0.00000000      -0.31055701
2
Properties=species:S:1:pos:R:3:forces:R:3 energy=-4.390724330464021 pbc="F F F"
Sc       0.00000000       0.00000000       0.00000000       0.00000000       0.00000000       0.29863647
Sc       0.00000000       0.00000000       5.35333333       0.00000000       0.00000000      -0.29863647
2
Properties=species:S:1:pos:R:3:forces:R:3 energy=-4.373916231269495 pbc="F F F"
Sc       0.00000000       0.00000000       0.00000000       0.00000000       0.00000000       0.27041221
Sc       0.00000000       0.00000000       5.41212121       0.00000000       0.00000000      -0.27041221
2
Properties=species:S:1:pos:R:3:forces:R:3 energy=-4.359127487023141 pbc="F F F"
Sc       0.00000000       0.00000000       0.00000000       0.00000000       0.00000000       0.23265730
Sc       0.00000000       0.00000000       5.47090909       0.00000000       0.00000000      -0.23265730
2
Properties=species:S:1:pos:R:3:forces:R:3 energy=-4.346325900561695 pbc="F F F"
Sc       0.00000000       0.00000000       0.00000000       0.00000000       0.00000000       0.20688383
Sc       0.00000000       0.00000000       5.52969697       0.00000000       0.00000000      -0.20688383
2
Properties=species:S:1:pos:R:3:forces:R:3 energy=-4.334156629975198 pbc="F F F"
Sc       0.00000000       0.00000000       0.00000000       0.00000000       0.00000000       0.21334192
Sc       0.00000000       0.00000000       5.58848485       0.00000000       0.00000000      -0.21334192
2
Properties=species:S:1:pos:R:3:forces:R:3 energy=-4.320619020107279 pbc="F F F"
Sc       0.00000000       0.00000000       0.00000000       0.00000000       0.00000000       0.25046992
Sc       0.00000000       0.00000000       5.64727273       0.00000000       0.00000000      -0.25046992
2
Properties=species:S:1:pos:R:3:forces:R:3 energy=-4.304735930250471 pbc="F F F"
Sc       0.00000000       0.00000000       0.00000000       0.00000000       0.00000000       0.28601754
Sc       0.00000000       0.00000000       5.70606061       0.00000000       0.00000000      -0.28601754
2
Properties=species:S:1:pos:R:3:forces:R:3 energy=-4.287818442506119 pbc="F F F"
Sc       0.00000000       0.00000000       0.00000000       0.00000000       0.00000000       0.27898213
Sc       0.00000000       0.00000000       5.76484848       0.00000000       0.00000000      -0.27898213
2
Properties=species:S:1:pos:R:3:forces:R:3 energy=-4.273037384751948 pbc="F F F"
Sc       0.00000000       0.00000000       0.00000000       0.00000000       0.00000000       0.21673365
Sc       0.00000000       0.00000000       5.82363636       0.00000000       0.00000000      -0.21673365
2
Properties=species:S:1:pos:R:3:forces:R:3 energy=-4.262913110953645 pbc="F F F"
Sc       0.00000000       0.00000000       0.00000000       0.00000000       0.00000000       0.12752274
Sc       0.00000000       0.00000000       5.88242424       0.00000000       0.00000000      -0.12752274
2
Properties=species:S:1:pos:R:3:forces:R:3 energy=-4.257721662628175 pbc="F F F"
Sc       0.00000000       0.00000000       0.00000000       0.00000000       0.00000000       0.05406426
Sc       0.00000000       0.00000000       5.94121212       0.00000000       0.00000000      -0.05406426
2
Properties=species:S:1:pos:R:3:forces:R:3 energy=-4.255652643124841 pbc="F F F"
Sc       0.00000000       0.00000000       0.00000000       0.00000000       0.00000000       0.02544594
Sc       0.00000000       0.00000000       6.00000000       0.00000000       0.00000000      -0.02544594
