2
Properties=species:S:1:pos:R:3:forces:R:3 energy=23003.511224284204 pbc="F F F"
Se       0.00000000       0.00000000       0.00000000       0.00000000       0.00000000 -527737.00000000
Se       0.00000000       0.00000000       0.10000000       0.00000000       0.00000000  527737.00000000
2
Properties=species:S:1:pos:R:3:forces:R:3 energy=7167.821282877953 pbc="F F F"
Se       0.00000000       0.00000000       0.00000000       0.00000000       0.00000000 -121040.15625000
Se       0.00000000       0.00000000       0.15959596       0.00000000       0.00000000  121040.15625000
2
Properties=species:S:1:pos:R:3:forces:R:3 energy=2924.8776793623283 pbc="F F F"
Se       0.00000000       0.00000000       0.00000000       0.00000000       0.00000000  -39333.09765625
Se       0.00000000       0.00000000       0.21919192       0.00000000       0.00000000   39333.09765625
2
Properties=species:S:1:pos:R:3:forces:R:3 energy=1415.3839049514336 pbc="F F F"
Se       0.00000000       0.00000000       0.00000000       0.00000000       0.00000000  -15576.72753906
Se       0.00000000       0.00000000       0.27878788       0.00000000       0.00000000   15576.72753906
2
Properties=species:S:1:pos:R:3:forces:R:3 energy=783.1760192092462 pbc="F F F"
Se       0.00000000       0.00000000       0.00000000       0.00000000       0.00000000   -6948.86474609
Se       0.00000000       0.00000000       0.33838384       0.00000000       0.00000000    6948.86474609
2
Properties=species:S:1:pos:R:3:forces:R:3 energy=491.44725945629244 pbc="F F F"
Se       0.00000000       0.00000000       0.00000000       0.00000000       0.00000000   -3323.44384766
Se       0.00000000       0.00000000       0.39797980       0.00000000       0.00000000    3323.44384766
2
Properties=species:S:1:pos:R:3:forces:R:3 energy=349.62502436470965 pbc="F F F"
Se       0.00000000       0.00000000       0.00000000       0.00000000       0.00000000   -1636.92272949
Se       0.00000000       0.00000000       0.45757576       0.00000000       0.00000000    1636.92272949
2
Properties=species:S:1:pos:R:3:forces:R:3 energy=280.0089050147901 pbc="F F F"
Se       0.00000000       0.00000000       0.00000000       0.00000000       0.00000000    -791.77374268
Se       0.00000000       0.00000000       0.51717172       0.00000000       0.00000000     791.77374268
2
Properties=species:S:1:pos:R:3:forces:R:3 energy=247.38916936354093 pbc="F F F"
Se       0.00000000       0.00000000       0.00000000       0.00000000       0.00000000    -349.78756714
Se       0.00000000       0.00000000       0.57676768       0.00000000       0.00000000     349.78756714
2
Properties=species:S:1:pos:R:3:forces:R:3 energy=234.12488724151655 pbc="F F F"
Se       0.00000000       0.00000000       0.00000000       0.00000000       0.00000000    -122.43972778
Se       0.00000000       0.00000000       0.63636364       0.00000000       0.00000000     122.43972778
2
Properties=species:S:1:pos:R:3:forces:R:3 energy=230.05199617722738 pbc="F F F"
Se       0.00000000       0.00000000       0.00000000       0.00000000       0.00000000     -34.91651917
Se       0.00000000       0.00000000       0.69595960       0.00000000       0.00000000      34.91651917
2
Properties=species:S:1:pos:R:3:forces:R:3 energy=227.6288397050432 pbc="F F F"
Se       0.00000000       0.00000000       0.00000000       0.00000000       0.00000000     -64.90866852
Se       0.00000000       0.00000000       0.75555556       0.00000000       0.00000000      64.90866852
2
Properties=species:S:1:pos:R:3:forces:R:3 energy=220.3598886818375 pbc="F F F"
Se       0.00000000       0.00000000       0.00000000       0.00000000       0.00000000    -192.24674988
Se       0.00000000       0.00000000       0.81515152       0.00000000       0.00000000     192.24674988
2
Properties=species:S:1:pos:R:3:forces:R:3 energy=203.69279025302205 pbc="F F F"
Se       0.00000000       0.00000000       0.00000000       0.00000000       0.00000000    -370.38772583
Se       0.00000000       0.00000000       0.87474747       0.00000000       0.00000000     370.38772583
2
Properties=species:S:1:pos:R:3:forces:R:3 energy=176.5142632319533 pbc="F F F"
Se       0.00000000       0.00000000       0.00000000       0.00000000       0.00000000    -533.12829590
Se       0.00000000       0.00000000       0.93434343       0.00000000       0.00000000     533.12829590
2
Properties=species:S:1:pos:R:3:forces:R:3 energy=141.879819156597 pbc="F F F"
Se       0.00000000       0.00000000       0.00000000       0.00000000       0.00000000    -609.46905518
Se       0.00000000       0.00000000       0.99393939       0.00000000       0.00000000     609.46905518
2
Properties=species:S:1:pos:R:3:forces:R:3 energy=106.40776714615177 pbc="F F F"
Se       0.00000000       0.00000000       0.00000000       0.00000000       0.00000000    -562.20037842
Se       0.00000000       0.00000000       1.05353535       0.00000000       0.00000000     562.20037842
2
Properties=species:S:1:pos:R:3:forces:R:3 energy=76.19827363229217 pbc="F F F"
Se       0.00000000       0.00000000       0.00000000       0.00000000       0.00000000    -448.30633545
Se       0.00000000       0.00000000       1.11313131       0.00000000       0.00000000     448.30633545
2
Properties=species:S:1:pos:R:3:forces:R:3 energy=52.84747674221937 pbc="F F F"
Se       0.00000000       0.00000000       0.00000000       0.00000000       0.00000000    -338.35382080
Se       0.00000000       0.00000000       1.17272727       0.00000000       0.00000000     338.35382080
2
Properties=species:S:1:pos:R:3:forces:R:3 energy=35.46238652201978 pbc="F F F"
Se       0.00000000       0.00000000       0.00000000       0.00000000       0.00000000    -248.64489746
Se       0.00000000       0.00000000       1.23232323       0.00000000       0.00000000     248.64489746
2
Properties=species:S:1:pos:R:3:forces:R:3 energy=22.815538482691586 pbc="F F F"
Se       0.00000000       0.00000000       0.00000000       0.00000000       0.00000000    -178.44427490
Se       0.00000000       0.00000000       1.29191919       0.00000000       0.00000000     178.44427490
2
Properties=species:S:1:pos:R:3:forces:R:3 energy=13.957073223673895 pbc="F F F"
Se       0.00000000       0.00000000       0.00000000       0.00000000       0.00000000    -120.66056824
Se       0.00000000       0.00000000       1.35151515       0.00000000       0.00000000     120.66056824
2
Properties=species:S:1:pos:R:3:forces:R:3 energy=8.16075369816655 pbc="F F F"
Se       0.00000000       0.00000000       0.00000000       0.00000000       0.00000000     -76.52675629
Se       0.00000000       0.00000000       1.41111111       0.00000000       0.00000000      76.52675629
2
Properties=species:S:1:pos:R:3:forces:R:3 energy=4.529307617122325 pbc="F F F"
Se       0.00000000       0.00000000       0.00000000       0.00000000       0.00000000     -47.64234161
Se       0.00000000       0.00000000       1.47070707       0.00000000       0.00000000      47.64234161
2
Properties=species:S:1:pos:R:3:forces:R:3 energy=2.2386195631565373 pbc="F F F"
Se       0.00000000       0.00000000       0.00000000       0.00000000       0.00000000     -31.04323196
Se       0.00000000       0.00000000       1.53030303       0.00000000       0.00000000      31.04323196
2
Properties=species:S:1:pos:R:3:forces:R:3 energy=0.6487752908999228 pbc="F F F"
Se       0.00000000       0.00000000       0.00000000       0.00000000       0.00000000     -23.46307564
Se       0.00000000       0.00000000       1.58989899       0.00000000       0.00000000      23.46307564
2
Properties=species:S:1:pos:R:3:forces:R:3 energy=-0.6493001887930612 pbc="F F F"
Se       0.00000000       0.00000000       0.00000000       0.00000000       0.00000000     -20.52012253
Se       0.00000000       0.00000000       1.64949495       0.00000000       0.00000000      20.52012253
2
Properties=species:S:1:pos:R:3:forces:R:3 energy=-1.8186423141130152 pbc="F F F"
Se       0.00000000       0.00000000       0.00000000       0.00000000       0.00000000     -18.73798180
Se       0.00000000       0.00000000       1.70909091       0.00000000       0.00000000      18.73798180
2
Properties=species:S:1:pos:R:3:forces:R:3 energy=-2.8756122003349534 pbc="F F F"
Se       0.00000000       0.00000000       0.00000000       0.00000000       0.00000000     -16.63936615
Se       0.00000000       0.00000000       1.76868687       0.00000000       0.00000000      16.63936615
2
Properties=species:S:1:pos:R:3:forces:R:3 energy=-3.791216074076779 pbc="F F F"
Se       0.00000000       0.00000000       0.00000000       0.00000000       0.00000000     -14.01630974
Se       0.00000000       0.00000000       1.82828283       0.00000000       0.00000000      14.01630974
2
Properties=species:S:1:pos:R:3:forces:R:3 energy=-4.541080299954692 pbc="F F F"
Se       0.00000000       0.00000000       0.00000000       0.00000000       0.00000000     -11.13418579
Se       0.00000000       0.00000000       1.88787879       0.00000000       0.00000000      11.13418579
2
Properties=species:S:1:pos:R:3:forces:R:3 energy=-5.119548857505488 pbc="F F F"
Se       0.00000000       0.00000000       0.00000000       0.00000000       0.00000000      -8.30956364
Se       0.00000000       0.00000000       1.94747475       0.00000000       0.00000000       8.30956364
2
Properties=species:S:1:pos:R:3:forces:R:3 energy=-5.536762232419628 pbc="F F F"
Se       0.00000000       0.00000000       0.00000000       0.00000000       0.00000000      -5.74458981
Se       0.00000000       0.00000000       2.00707071       0.00000000       0.00000000       5.74458981
2
Properties=species:S:1:pos:R:3:forces:R:3 energy=-5.810952208069662 pbc="F F F"
Se       0.00000000       0.00000000       0.00000000       0.00000000       0.00000000      -3.51406479
Se       0.00000000       0.00000000       2.06666667       0.00000000       0.00000000       3.51406479
2
Properties=species:S:1:pos:R:3:forces:R:3 energy=-5.962250388436728 pbc="F F F"
Se       0.00000000       0.00000000       0.00000000       0.00000000       0.00000000      -1.61717439
Se       0.00000000       0.00000000       2.12626263       0.00000000       0.00000000       1.61717439
2
Properties=species:S:1:pos:R:3:forces:R:3 energy=-6.009884454304954 pbc="F F F"
Se       0.00000000       0.00000000       0.00000000       0.00000000       0.00000000      -0.03169279
Se       0.00000000       0.00000000       2.18585859       0.00000000       0.00000000       0.03169279
2
Properties=species:S:1:pos:R:3:forces:R:3 energy=-5.971924452551238 pbc="F F F"
Se       0.00000000       0.00000000       0.00000000       0.00000000       0.00000000       1.25646365
Se       0.00000000       0.00000000       2.24545455       0.00000000       0.00000000      -1.25646365
2
Properties=species:S:1:pos:R:3:forces:R:3 energy=-5.866017158710936 pbc="F F F"
Se       0.00000000       0.00000000       0.00000000       0.00000000       0.00000000       2.24812102
Se       0.00000000       0.00000000       2.30505051       0.00000000       0.00000000      -2.24812102
2
Properties=species:S:1:pos:R:3:forces:R:3 energy=-5.709742717830142 pbc="F F F"
Se       0.00000000       0.00000000       0.00000000       0.00000000       0.00000000       2.95049477
Se       0.00000000       0.00000000       2.36464646       0.00000000       0.00000000      -2.95049477
2
Properties=species:S:1:pos:R:3:forces:R:3 energy=-5.519166971685041 pbc="F F F"
Se       0.00000000       0.00000000       0.00000000       0.00000000       0.00000000       3.41195583
Se       0.00000000       0.00000000       2.42424242       0.00000000       0.00000000      -3.41195583
2
Properties=species:S:1:pos:R:3:forces:R:3 energy=-5.305911226256649 pbc="F F F"
Se       0.00000000       0.00000000       0.00000000       0.00000000       0.00000000       3.73023200
Se       0.00000000       0.00000000       2.48383838       0.00000000       0.00000000      -3.73023200
2
Properties=species:S:1:pos:R:3:forces:R:3 energy=-5.075357546037128 pbc="F F F"
Se       0.00000000       0.00000000       0.00000000       0.00000000       0.00000000       4.00588226
Se       0.00000000       0.00000000       2.54343434       0.00000000       0.00000000      -4.00588226
2
Properties=species:S:1:pos:R:3:forces:R:3 energy=-4.82835399023178 pbc="F F F"
Se       0.00000000       0.00000000       0.00000000       0.00000000       0.00000000       4.28346205
Se       0.00000000       0.00000000       2.60303030       0.00000000       0.00000000      -4.28346205
2
Properties=species:S:1:pos:R:3:forces:R:3 energy=-4.565246956845081 pbc="F F F"
Se       0.00000000       0.00000000       0.00000000       0.00000000       0.00000000       4.53727627
Se       0.00000000       0.00000000       2.66262626       0.00000000       0.00000000      -4.53727627
2
Properties=species:S:1:pos:R:3:forces:R:3 energy=-4.289357628170919 pbc="F F F"
Se       0.00000000       0.00000000       0.00000000       0.00000000       0.00000000       4.69996977
Se       0.00000000       0.00000000       2.72222222       0.00000000       0.00000000      -4.69996977
2
Properties=species:S:1:pos:R:3:forces:R:3 energy=-4.00823001836236 pbc="F F F"
Se       0.00000000       0.00000000       0.00000000       0.00000000       0.00000000       4.70382214
Se       0.00000000       0.00000000       2.78181818       0.00000000       0.00000000      -4.70382214
2
Properties=species:S:1:pos:R:3:forces:R:3 energy=-3.7325196022322356 pbc="F F F"
Se       0.00000000       0.00000000       0.00000000       0.00000000       0.00000000       4.51731253
Se       0.00000000       0.00000000       2.84141414       0.00000000       0.00000000      -4.51731253
2
Properties=species:S:1:pos:R:3:forces:R:3 energy=-3.4731812274693374 pbc="F F F"
Se       0.00000000       0.00000000       0.00000000       0.00000000       0.00000000       4.16218710
Se       0.00000000       0.00000000       2.90101010       0.00000000       0.00000000      -4.16218710
2
Properties=species:S:1:pos:R:3:forces:R:3 energy=-3.238547370979261 pbc="F F F"
Se       0.00000000       0.00000000       0.00000000       0.00000000       0.00000000       3.70033479
Se       0.00000000       0.00000000       2.96060606       0.00000000       0.00000000      -3.70033479
2
Properties=species:S:1:pos:R:3:forces:R:3 energy=-3.0328395238005013 pbc="F F F"
Se       0.00000000       0.00000000       0.00000000       0.00000000       0.00000000       3.20216870
Se       0.00000000       0.00000000       3.02020202       0.00000000       0.00000000      -3.20216870
2
Properties=species:S:1:pos:R:3:forces:R:3 energy=-2.856515696182842 pbc="F F F"
Se       0.00000000       0.00000000       0.00000000       0.00000000       0.00000000       2.72114944
Se       0.00000000       0.00000000       3.07979798       0.00000000       0.00000000      -2.72114944
2
Properties=species:S:1:pos:R:3:forces:R:3 energy=-2.707566775429664 pbc="F F F"
Se       0.00000000       0.00000000       0.00000000       0.00000000       0.00000000       2.28650713
Se       0.00000000       0.00000000       3.13939394       0.00000000       0.00000000      -2.28650713
2
Properties=species:S:1:pos:R:3:forces:R:3 energy=-2.582840842070449 pbc="F F F"
Se       0.00000000       0.00000000       0.00000000       0.00000000       0.00000000       1.90899169
Se       0.00000000       0.00000000       3.19898990       0.00000000       0.00000000      -1.90899169
2
Properties=species:S:1:pos:R:3:forces:R:3 energy=-2.478877791614907 pbc="F F F"
Se       0.00000000       0.00000000       0.00000000       0.00000000       0.00000000       1.58936024
Se       0.00000000       0.00000000       3.25858586       0.00000000       0.00000000      -1.58936024
2
Properties=species:S:1:pos:R:3:forces:R:3 energy=-2.3923188276300156 pbc="F F F"
Se       0.00000000       0.00000000       0.00000000       0.00000000       0.00000000       1.32422471
Se       0.00000000       0.00000000       3.31818182       0.00000000       0.00000000      -1.32422471
2
Properties=species:S:1:pos:R:3:forces:R:3 energy=-2.320055596065103 pbc="F F F"
Se       0.00000000       0.00000000       0.00000000       0.00000000       0.00000000       1.10871816
Se       0.00000000       0.00000000       3.37777778       0.00000000       0.00000000      -1.10871816
2
Properties=species:S:1:pos:R:3:forces:R:3 energy=-2.2592901431887196 pbc="F F F"
Se       0.00000000       0.00000000       0.00000000       0.00000000       0.00000000       0.93740791
Se       0.00000000       0.00000000       3.43737374       0.00000000       0.00000000      -0.93740791
2
Properties=species:S:1:pos:R:3:forces:R:3 energy=-2.207559163759699 pbc="F F F"
Se       0.00000000       0.00000000       0.00000000       0.00000000       0.00000000       0.80457985
Se       0.00000000       0.00000000       3.49696970       0.00000000       0.00000000      -0.80457985
2
Properties=species:S:1:pos:R:3:forces:R:3 energy=-2.162743112450239 pbc="F F F"
Se       0.00000000       0.00000000       0.00000000       0.00000000       0.00000000       0.70433378
Se       0.00000000       0.00000000       3.55656566       0.00000000       0.00000000      -0.70433378
2
Properties=species:S:1:pos:R:3:forces:R:3 energy=-2.123079573461344 pbc="F F F"
Se       0.00000000       0.00000000       0.00000000       0.00000000       0.00000000       0.63069785
Se       0.00000000       0.00000000       3.61616162       0.00000000       0.00000000      -0.63069785
2
Properties=species:S:1:pos:R:3:forces:R:3 energy=-2.087157640679153 pbc="F F F"
Se       0.00000000       0.00000000       0.00000000       0.00000000       0.00000000       0.57778919
Se       0.00000000       0.00000000       3.67575758       0.00000000       0.00000000      -0.57778919
2
Properties=species:S:1:pos:R:3:forces:R:3 energy=-2.0539110225430814 pbc="F F F"
Se       0.00000000       0.00000000       0.00000000       0.00000000       0.00000000       0.54004997
Se       0.00000000       0.00000000       3.73535354       0.00000000       0.00000000      -0.54004997
2
Properties=species:S:1:pos:R:3:forces:R:3 energy=-2.0225860686136405 pbc="F F F"
Se       0.00000000       0.00000000       0.00000000       0.00000000       0.00000000       0.51250792
Se       0.00000000       0.00000000       3.79494949       0.00000000       0.00000000      -0.51250792
2
Properties=species:S:1:pos:R:3:forces:R:3 energy=-1.9927040931012978 pbc="F F F"
Se       0.00000000       0.00000000       0.00000000       0.00000000       0.00000000       0.49101454
Se       0.00000000       0.00000000       3.85454545       0.00000000       0.00000000      -0.49101454
2
Properties=species:S:1:pos:R:3:forces:R:3 energy=-1.9640054871324388 pbc="F F F"
Se       0.00000000       0.00000000       0.00000000       0.00000000       0.00000000       0.47237405
Se       0.00000000       0.00000000       3.91414141       0.00000000       0.00000000      -0.47237405
2
Properties=species:S:1:pos:R:3:forces:R:3 energy=-1.9363890281337381 pbc="F F F"
Se       0.00000000       0.00000000       0.00000000       0.00000000       0.00000000       0.45437378
Se       0.00000000       0.00000000       3.97373737       0.00000000       0.00000000      -0.45437378
2
Properties=species:S:1:pos:R:3:forces:R:3 energy=-1.9098615046517993 pbc="F F F"
Se       0.00000000       0.00000000       0.00000000       0.00000000       0.00000000       0.43570349
Se       0.00000000       0.00000000       4.03333333       0.00000000       0.00000000      -0.43570349
2
Properties=species:S:1:pos:R:3:forces:R:3 energy=-1.8844815335157743 pbc="F F F"
Se       0.00000000       0.00000000       0.00000000       0.00000000       0.00000000       0.41580418
Se       0.00000000       0.00000000       4.09292929       0.00000000       0.00000000      -0.41580418
2
Properties=species:S:1:pos:R:3:forces:R:3 energy=-1.8603253127571373 pbc="F F F"
Se       0.00000000       0.00000000       0.00000000       0.00000000       0.00000000       0.39467657
Se       0.00000000       0.00000000       4.15252525       0.00000000       0.00000000      -0.39467657
2
Properties=species:S:1:pos:R:3:forces:R:3 energy=-1.8374569179057414 pbc="F F F"
Se       0.00000000       0.00000000       0.00000000       0.00000000       0.00000000       0.37268084
Se       0.00000000       0.00000000       4.21212121       0.00000000       0.00000000      -0.37268084
2
Properties=species:S:1:pos:R:3:forces:R:3 energy=-1.8159113160819524 pbc="F F F"
Se       0.00000000       0.00000000       0.00000000       0.00000000       0.00000000       0.35036013
Se       0.00000000       0.00000000       4.27171717       0.00000000       0.00000000      -0.35036013
2
Properties=species:S:1:pos:R:3:forces:R:3 energy=-1.7956916099277898 pbc="F F F"
Se       0.00000000       0.00000000       0.00000000       0.00000000       0.00000000       0.32828993
Se       0.00000000       0.00000000       4.33131313       0.00000000       0.00000000      -0.32828993
2
Properties=species:S:1:pos:R:3:forces:R:3 energy=-1.7767672435478967 pbc="F F F"
Se       0.00000000       0.00000000       0.00000000       0.00000000       0.00000000       0.30696654
Se       0.00000000       0.00000000       4.39090909       0.00000000       0.00000000      -0.30696654
2
Properties=species:S:1:pos:R:3:forces:R:3 energy=-1.759081455673985 pbc="F F F"
Se       0.00000000       0.00000000       0.00000000       0.00000000       0.00000000       0.28674811
Se       0.00000000       0.00000000       4.45050505       0.00000000       0.00000000      -0.28674811
2
Properties=species:S:1:pos:R:3:forces:R:3 energy=-1.742562830294632 pbc="F F F"
Se       0.00000000       0.00000000       0.00000000       0.00000000       0.00000000       0.26784569
Se       0.00000000       0.00000000       4.51010101       0.00000000       0.00000000      -0.26784569
2
Properties=species:S:1:pos:R:3:forces:R:3 energy=-1.7271286919521451 pbc="F F F"
Se       0.00000000       0.00000000       0.00000000       0.00000000       0.00000000       0.25033337
Se       0.00000000       0.00000000       4.56969697       0.00000000       0.00000000      -0.25033337
2
Properties=species:S:1:pos:R:3:forces:R:3 energy=-1.712697304687874 pbc="F F F"
Se       0.00000000       0.00000000       0.00000000       0.00000000       0.00000000       0.23420396
Se       0.00000000       0.00000000       4.62929293       0.00000000       0.00000000      -0.23420396
2
Properties=species:S:1:pos:R:3:forces:R:3 energy=-1.6991872617405621 pbc="F F F"
Se       0.00000000       0.00000000       0.00000000       0.00000000       0.00000000       0.21941197
Se       0.00000000       0.00000000       4.68888889       0.00000000       0.00000000      -0.21941197
2
Properties=species:S:1:pos:R:3:forces:R:3 energy=-1.6865193196191117 pbc="F F F"
Se       0.00000000       0.00000000       0.00000000       0.00000000       0.00000000       0.20591760
Se       0.00000000       0.00000000       4.74848485       0.00000000       0.00000000      -0.20591760
2
Properties=species:S:1:pos:R:3:forces:R:3 energy=-1.674617694357614 pbc="F F F"
Se       0.00000000       0.00000000       0.00000000       0.00000000       0.00000000       0.19372571
Se       0.00000000       0.00000000       4.80808081       0.00000000       0.00000000      -0.19372571
2
Properties=species:S:1:pos:R:3:forces:R:3 energy=-1.6634020701172114 pbc="F F F"
Se       0.00000000       0.00000000       0.00000000       0.00000000       0.00000000       0.18288623
Se       0.00000000       0.00000000       4.86767677       0.00000000       0.00000000      -0.18288623
2
Properties=species:S:1:pos:R:3:forces:R:3 energy=-1.6527899802040678 pbc="F F F"
Se       0.00000000       0.00000000       0.00000000       0.00000000       0.00000000       0.17348814
Se       0.00000000       0.00000000       4.92727273       0.00000000       0.00000000      -0.17348814
2
Properties=species:S:1:pos:R:3:forces:R:3 energy=-1.6426935214783254 pbc="F F F"
Se       0.00000000       0.00000000       0.00000000       0.00000000       0.00000000       0.16559622
Se       0.00000000       0.00000000       4.98686869       0.00000000       0.00000000      -0.16559622
2
Properties=species:S:1:pos:R:3:forces:R:3 energy=-1.633024188457997 pbc="F F F"
Se       0.00000000       0.00000000       0.00000000       0.00000000       0.00000000       0.15916726
Se       0.00000000       0.00000000       5.04646465       0.00000000       0.00000000      -0.15916726
2
Properties=species:S:1:pos:R:3:forces:R:3 energy=-1.6236986009085532 pbc="F F F"
Se       0.00000000       0.00000000       0.00000000       0.00000000       0.00000000       0.15394647
Se       0.00000000       0.00000000       5.10606061       0.00000000       0.00000000      -0.15394647
2
Properties=species:S:1:pos:R:3:forces:R:3 energy=-1.6146600486301501 pbc="F F F"
Se       0.00000000       0.00000000       0.00000000       0.00000000       0.00000000       0.14938858
Se       0.00000000       0.00000000       5.16565657       0.00000000       0.00000000      -0.14938858
2
Properties=species:S:1:pos:R:3:forces:R:3 energy=-1.605891981114282 pbc="F F F"
Se       0.00000000       0.00000000       0.00000000       0.00000000       0.00000000       0.14482412
Se       0.00000000       0.00000000       5.22525253       0.00000000       0.00000000      -0.14482412
2
Properties=species:S:1:pos:R:3:forces:R:3 energy=-1.5974075353412778 pbc="F F F"
Se       0.00000000       0.00000000       0.00000000       0.00000000       0.00000000       0.13984632
Se       0.00000000       0.00000000       5.28484848       0.00000000       0.00000000      -0.13984632
2
Properties=species:S:1:pos:R:3:forces:R:3 energy=-1.5892294472231216 pbc="F F F"
Se       0.00000000       0.00000000       0.00000000       0.00000000       0.00000000       0.13456728
Se       0.00000000       0.00000000       5.34444444       0.00000000       0.00000000      -0.13456728
2
Properties=species:S:1:pos:R:3:forces:R:3 energy=-1.5813680050124852 pbc="F F F"
Se       0.00000000       0.00000000       0.00000000       0.00000000       0.00000000       0.12923925
Se       0.00000000       0.00000000       5.40404040       0.00000000       0.00000000      -0.12923925
2
Properties=species:S:1:pos:R:3:forces:R:3 energy=-1.5738314498132744 pbc="F F F"
Se       0.00000000       0.00000000       0.00000000       0.00000000       0.00000000       0.12345332
Se       0.00000000       0.00000000       5.46363636       0.00000000       0.00000000      -0.12345332
2
Properties=species:S:1:pos:R:3:forces:R:3 energy=-1.5666956116247253 pbc="F F F"
Se       0.00000000       0.00000000       0.00000000       0.00000000       0.00000000       0.11563683
Se       0.00000000       0.00000000       5.52323232       0.00000000       0.00000000      -0.11563683
2
Properties=species:S:1:pos:R:3:forces:R:3 energy=-1.5601313464849351 pbc="F F F"
Se       0.00000000       0.00000000       0.00000000       0.00000000       0.00000000       0.10381060
Se       0.00000000       0.00000000       5.58282828       0.00000000       0.00000000      -0.10381060
2
Properties=species:S:1:pos:R:3:forces:R:3 energy=-1.5544245568998836 pbc="F F F"
Se       0.00000000       0.00000000       0.00000000       0.00000000       0.00000000       0.08691270
Se       0.00000000       0.00000000       5.64242424       0.00000000       0.00000000      -0.08691270
2
Properties=species:S:1:pos:R:3:forces:R:3 energy=-1.5498480786830988 pbc="F F F"
Se       0.00000000       0.00000000       0.00000000       0.00000000       0.00000000       0.06614225
Se       0.00000000       0.00000000       5.70202020       0.00000000       0.00000000      -0.06614225
2
Properties=species:S:1:pos:R:3:forces:R:3 energy=-1.5465502099745057 pbc="F F F"
Se       0.00000000       0.00000000       0.00000000       0.00000000       0.00000000       0.04494891
Se       0.00000000       0.00000000       5.76161616       0.00000000       0.00000000      -0.04494891
2
Properties=species:S:1:pos:R:3:forces:R:3 energy=-1.5444258507501538 pbc="F F F"
Se       0.00000000       0.00000000       0.00000000       0.00000000       0.00000000       0.02705314
Se       0.00000000       0.00000000       5.82121212       0.00000000       0.00000000      -0.02705314
2
Properties=species:S:1:pos:R:3:forces:R:3 energy=-1.5432264280423837 pbc="F F F"
Se       0.00000000       0.00000000       0.00000000       0.00000000       0.00000000       0.01418596
Se       0.00000000       0.00000000       5.88080808       0.00000000       0.00000000      -0.01418596
2
Properties=species:S:1:pos:R:3:forces:R:3 energy=-1.542633676986592 pbc="F F F"
Se       0.00000000       0.00000000       0.00000000       0.00000000       0.00000000       0.00638465
Se       0.00000000       0.00000000       5.94040404       0.00000000       0.00000000      -0.00638465
2
Properties=species:S:1:pos:R:3:forces:R:3 energy=-1.5423645552914582 pbc="F F F"
Se       0.00000000       0.00000000       0.00000000       0.00000000       0.00000000       0.00354915
Se       0.00000000       0.00000000       6.00000000       0.00000000       0.00000000      -0.00354915
