2
Properties=species:S:1:pos:R:3:forces:R:3 energy=5151.481927409203 pbc="F F F"
Se       0.00000000       0.00000000       0.00000000       0.00000000       0.00000000  -80003.89843750
Se       0.00000000       0.00000000       0.18000000       0.00000000       0.00000000   80003.89843750
2
Properties=species:S:1:pos:R:3:forces:R:3 energy=2266.8471617842033 pbc="F F F"
Se       0.00000000       0.00000000       0.00000000       0.00000000       0.00000000  -28513.30273438
Se       0.00000000       0.00000000       0.23878788       0.00000000       0.00000000   28513.30273438
2
Properties=species:S:1:pos:R:3:forces:R:3 energy=1158.4786315139336 pbc="F F F"
Se       0.00000000       0.00000000       0.00000000       0.00000000       0.00000000  -11955.23437500
Se       0.00000000       0.00000000       0.29757576       0.00000000       0.00000000   11955.23437500
2
Properties=species:S:1:pos:R:3:forces:R:3 energy=671.509271165539 pbc="F F F"
Se       0.00000000       0.00000000       0.00000000       0.00000000       0.00000000   -5532.17285156
Se       0.00000000       0.00000000       0.35636364       0.00000000       0.00000000    5532.17285156
2
Properties=species:S:1:pos:R:3:forces:R:3 energy=439.8623595539487 pbc="F F F"
Se       0.00000000       0.00000000       0.00000000       0.00000000       0.00000000   -2706.78271484
Se       0.00000000       0.00000000       0.41515152       0.00000000       0.00000000    2706.78271484
2
Properties=species:S:1:pos:R:3:forces:R:3 energy=325.2876830656194 pbc="F F F"
Se       0.00000000       0.00000000       0.00000000       0.00000000       0.00000000   -1346.63842773
Se       0.00000000       0.00000000       0.47393939       0.00000000       0.00000000    1346.63842773
2
Properties=species:S:1:pos:R:3:forces:R:3 energy=268.84261474742607 pbc="F F F"
Se       0.00000000       0.00000000       0.00000000       0.00000000       0.00000000    -647.92236328
Se       0.00000000       0.00000000       0.53272727       0.00000000       0.00000000     647.92236328
2
Properties=species:S:1:pos:R:3:forces:R:3 energy=242.77564399509066 pbc="F F F"
Se       0.00000000       0.00000000       0.00000000       0.00000000       0.00000000    -277.85369873
Se       0.00000000       0.00000000       0.59151515       0.00000000       0.00000000     277.85369873
2
Properties=species:S:1:pos:R:3:forces:R:3 energy=232.64759235448759 pbc="F F F"
Se       0.00000000       0.00000000       0.00000000       0.00000000       0.00000000     -90.71611023
Se       0.00000000       0.00000000       0.65030303       0.00000000       0.00000000      90.71611023
2
Properties=species:S:1:pos:R:3:forces:R:3 energy=229.61980628650628 pbc="F F F"
Se       0.00000000       0.00000000       0.00000000       0.00000000       0.00000000     -31.86138153
Se       0.00000000       0.00000000       0.70909091       0.00000000       0.00000000      31.86138153
2
Properties=species:S:1:pos:R:3:forces:R:3 energy=226.71332768977433 pbc="F F F"
Se       0.00000000       0.00000000       0.00000000       0.00000000       0.00000000     -84.35814667
Se       0.00000000       0.00000000       0.76787879       0.00000000       0.00000000      84.35814667
2
Properties=species:S:1:pos:R:3:forces:R:3 energy=217.9616801587081 pbc="F F F"
Se       0.00000000       0.00000000       0.00000000       0.00000000       0.00000000    -224.58747864
Se       0.00000000       0.00000000       0.82666667       0.00000000       0.00000000     224.58747864
2
Properties=species:S:1:pos:R:3:forces:R:3 energy=199.55279099008652 pbc="F F F"
Se       0.00000000       0.00000000       0.00000000       0.00000000       0.00000000    -402.83877563
Se       0.00000000       0.00000000       0.88545455       0.00000000       0.00000000     402.83877563
2
Properties=species:S:1:pos:R:3:forces:R:3 energy=171.1334803092897 pbc="F F F"
Se       0.00000000       0.00000000       0.00000000       0.00000000       0.00000000    -553.59454346
Se       0.00000000       0.00000000       0.94424242       0.00000000       0.00000000     553.59454346
2
Properties=species:S:1:pos:R:3:forces:R:3 energy=136.33442446187667 pbc="F F F"
Se       0.00000000       0.00000000       0.00000000       0.00000000       0.00000000    -610.01147461
Se       0.00000000       0.00000000       1.00303030       0.00000000       0.00000000     610.01147461
2
Properties=species:S:1:pos:R:3:forces:R:3 energy=101.80857000871441 pbc="F F F"
Se       0.00000000       0.00000000       0.00000000       0.00000000       0.00000000    -548.16174316
Se       0.00000000       0.00000000       1.06181818       0.00000000       0.00000000     548.16174316
2
Properties=species:S:1:pos:R:3:forces:R:3 energy=72.90249756287996 pbc="F F F"
Se       0.00000000       0.00000000       0.00000000       0.00000000       0.00000000    -433.59387207
Se       0.00000000       0.00000000       1.12060606       0.00000000       0.00000000     433.59387207
2
Properties=species:S:1:pos:R:3:forces:R:3 energy=50.62892163707253 pbc="F F F"
Se       0.00000000       0.00000000       0.00000000       0.00000000       0.00000000    -327.25997925
Se       0.00000000       0.00000000       1.17939394       0.00000000       0.00000000     327.25997925
2
Properties=species:S:1:pos:R:3:forces:R:3 energy=34.02827054813651 pbc="F F F"
Se       0.00000000       0.00000000       0.00000000       0.00000000       0.00000000    -240.97229004
Se       0.00000000       0.00000000       1.23818182       0.00000000       0.00000000     240.97229004
2
Properties=species:S:1:pos:R:3:forces:R:3 energy=21.92775777032692 pbc="F F F"
Se       0.00000000       0.00000000       0.00000000       0.00000000       0.00000000    -173.13737488
Se       0.00000000       0.00000000       1.29696970       0.00000000       0.00000000     173.13737488
2
Properties=species:S:1:pos:R:3:forces:R:3 energy=13.45295094577046 pbc="F F F"
Se       0.00000000       0.00000000       0.00000000       0.00000000       0.00000000    -117.00196838
Se       0.00000000       0.00000000       1.35575758       0.00000000       0.00000000     117.00196838
2
Properties=species:S:1:pos:R:3:forces:R:3 energy=7.901477290587921 pbc="F F F"
Se       0.00000000       0.00000000       0.00000000       0.00000000       0.00000000     -74.47263336
Se       0.00000000       0.00000000       1.41454545       0.00000000       0.00000000      74.47263336
2
Properties=species:S:1:pos:R:3:forces:R:3 energy=4.405480116848822 pbc="F F F"
Se       0.00000000       0.00000000       0.00000000       0.00000000       0.00000000     -46.67305756
Se       0.00000000       0.00000000       1.47333333       0.00000000       0.00000000      46.67305756
2
Properties=species:S:1:pos:R:3:forces:R:3 energy=2.1824923887417773 pbc="F F F"
Se       0.00000000       0.00000000       0.00000000       0.00000000       0.00000000     -30.69890785
Se       0.00000000       0.00000000       1.53212121       0.00000000       0.00000000      30.69890785
2
Properties=species:S:1:pos:R:3:forces:R:3 energy=0.62511369244276 pbc="F F F"
Se       0.00000000       0.00000000       0.00000000       0.00000000       0.00000000     -23.38710022
Se       0.00000000       0.00000000       1.59090909       0.00000000       0.00000000      23.38710022
2
Properties=species:S:1:pos:R:3:forces:R:3 energy=-0.6534455720439241 pbc="F F F"
Se       0.00000000       0.00000000       0.00000000       0.00000000       0.00000000     -20.51349449
Se       0.00000000       0.00000000       1.64969697       0.00000000       0.00000000      20.51349449
2
Properties=species:S:1:pos:R:3:forces:R:3 energy=-1.8072775958641303 pbc="F F F"
Se       0.00000000       0.00000000       0.00000000       0.00000000       0.00000000     -18.75661850
Se       0.00000000       0.00000000       1.70848485       0.00000000       0.00000000      18.75661850
2
Properties=species:S:1:pos:R:3:forces:R:3 energy=-2.852039861461299 pbc="F F F"
Se       0.00000000       0.00000000       0.00000000       0.00000000       0.00000000     -16.69581795
Se       0.00000000       0.00000000       1.76727273       0.00000000       0.00000000      16.69581795
2
Properties=species:S:1:pos:R:3:forces:R:3 energy=-3.759951965207156 pbc="F F F"
Se       0.00000000       0.00000000       0.00000000       0.00000000       0.00000000     -14.12090874
Se       0.00000000       0.00000000       1.82606061       0.00000000       0.00000000      14.12090874
2
Properties=species:S:1:pos:R:3:forces:R:3 energy=-4.507120383379769 pbc="F F F"
Se       0.00000000       0.00000000       0.00000000       0.00000000       0.00000000     -11.28166294
Se       0.00000000       0.00000000       1.88484848       0.00000000       0.00000000      11.28166294
2
Properties=species:S:1:pos:R:3:forces:R:3 energy=-5.08731981213766 pbc="F F F"
Se       0.00000000       0.00000000       0.00000000       0.00000000       0.00000000      -8.48507118
Se       0.00000000       0.00000000       1.94363636       0.00000000       0.00000000       8.48507118
2
Properties=species:S:1:pos:R:3:forces:R:3 energy=-5.509632695705859 pbc="F F F"
Se       0.00000000       0.00000000       0.00000000       0.00000000       0.00000000      -5.93289089
Se       0.00000000       0.00000000       2.00242424       0.00000000       0.00000000       5.93289089
2
Properties=species:S:1:pos:R:3:forces:R:3 energy=-5.7912666155906045 pbc="F F F"
Se       0.00000000       0.00000000       0.00000000       0.00000000       0.00000000      -3.70405221
Se       0.00000000       0.00000000       2.06121212       0.00000000       0.00000000       3.70405221
2
Properties=species:S:1:pos:R:3:forces:R:3 energy=-5.951546802956824 pbc="F F F"
Se       0.00000000       0.00000000       0.00000000       0.00000000       0.00000000      -1.80149937
Se       0.00000000       0.00000000       2.12000000       0.00000000       0.00000000       1.80149937
2
Properties=species:S:1:pos:R:3:forces:R:3 energy=-6.009053160812956 pbc="F F F"
Se       0.00000000       0.00000000       0.00000000       0.00000000       0.00000000      -0.20412585
Se       0.00000000       0.00000000       2.17878788       0.00000000       0.00000000       0.20412585
2
Properties=species:S:1:pos:R:3:forces:R:3 energy=-5.98122281156803 pbc="F F F"
Se       0.00000000       0.00000000       0.00000000       0.00000000       0.00000000       1.10310590
Se       0.00000000       0.00000000       2.23757576       0.00000000       0.00000000      -1.10310590
2
Properties=species:S:1:pos:R:3:forces:R:3 energy=-5.885004243088987 pbc="F F F"
Se       0.00000000       0.00000000       0.00000000       0.00000000       0.00000000       2.12204194
Se       0.00000000       0.00000000       2.29636364       0.00000000       0.00000000      -2.12204194
2
Properties=species:S:1:pos:R:3:forces:R:3 energy=-5.737316593246872 pbc="F F F"
Se       0.00000000       0.00000000       0.00000000       0.00000000       0.00000000       2.85665941
Se       0.00000000       0.00000000       2.35515152       0.00000000       0.00000000      -2.85665941
2
Properties=species:S:1:pos:R:3:forces:R:3 energy=-5.553983685953413 pbc="F F F"
Se       0.00000000       0.00000000       0.00000000       0.00000000       0.00000000       3.34556437
Se       0.00000000       0.00000000       2.41393939       0.00000000       0.00000000      -3.34556437
2
Properties=species:S:1:pos:R:3:forces:R:3 energy=-5.347062656352221 pbc="F F F"
Se       0.00000000       0.00000000       0.00000000       0.00000000       0.00000000       3.67665315
Se       0.00000000       0.00000000       2.47272727       0.00000000       0.00000000      -3.67665315
2
Properties=species:S:1:pos:R:3:forces:R:3 energy=-5.122777790069731 pbc="F F F"
Se       0.00000000       0.00000000       0.00000000       0.00000000       0.00000000       3.95093226
Se       0.00000000       0.00000000       2.53151515       0.00000000       0.00000000      -3.95093226
2
Properties=species:S:1:pos:R:3:forces:R:3 energy=-4.882495636196786 pbc="F F F"
Se       0.00000000       0.00000000       0.00000000       0.00000000       0.00000000       4.22440434
Se       0.00000000       0.00000000       2.59030303       0.00000000       0.00000000      -4.22440434
2
Properties=species:S:1:pos:R:3:forces:R:3 energy=-4.626311896769891 pbc="F F F"
Se       0.00000000       0.00000000       0.00000000       0.00000000       0.00000000       4.48490763
Se       0.00000000       0.00000000       2.64909091       0.00000000       0.00000000      -4.48490763
2
Properties=species:S:1:pos:R:3:forces:R:3 energy=-4.356590741906416 pbc="F F F"
Se       0.00000000       0.00000000       0.00000000       0.00000000       0.00000000       4.67313719
Se       0.00000000       0.00000000       2.70787879       0.00000000       0.00000000      -4.67313719
2
Properties=species:S:1:pos:R:3:forces:R:3 energy=-4.079644263458007 pbc="F F F"
Se       0.00000000       0.00000000       0.00000000       0.00000000       0.00000000       4.72053099
Se       0.00000000       0.00000000       2.76666667       0.00000000       0.00000000      -4.72053099
2
Properties=species:S:1:pos:R:3:forces:R:3 energy=-3.8051762009479404 pbc="F F F"
Se       0.00000000       0.00000000       0.00000000       0.00000000       0.00000000       4.58562613
Se       0.00000000       0.00000000       2.82545455       0.00000000       0.00000000      -4.58562613
2
Properties=species:S:1:pos:R:3:forces:R:3 energy=-3.5439391755925986 pbc="F F F"
Se       0.00000000       0.00000000       0.00000000       0.00000000       0.00000000       4.27601242
Se       0.00000000       0.00000000       2.88424242       0.00000000       0.00000000      -4.27601242
2
Properties=species:S:1:pos:R:3:forces:R:3 energy=-3.3048448598858644 pbc="F F F"
Se       0.00000000       0.00000000       0.00000000       0.00000000       0.00000000       3.84330606
Se       0.00000000       0.00000000       2.94303030       0.00000000       0.00000000      -3.84330606
2
Properties=species:S:1:pos:R:3:forces:R:3 energy=-3.0931193512276285 pbc="F F F"
Se       0.00000000       0.00000000       0.00000000       0.00000000       0.00000000       3.35600996
Se       0.00000000       0.00000000       3.00181818       0.00000000       0.00000000      -3.35600996
2
Properties=species:S:1:pos:R:3:forces:R:3 energy=-2.910178952836104 pbc="F F F"
Se       0.00000000       0.00000000       0.00000000       0.00000000       0.00000000       2.87194252
Se       0.00000000       0.00000000       3.06060606       0.00000000       0.00000000      -2.87194252
2
Properties=species:S:1:pos:R:3:forces:R:3 energy=-2.7546843616702104 pbc="F F F"
Se       0.00000000       0.00000000       0.00000000       0.00000000       0.00000000       2.42625785
Se       0.00000000       0.00000000       3.11939394       0.00000000       0.00000000      -2.42625785
2
Properties=species:S:1:pos:R:3:forces:R:3 energy=-2.6238535563493914 pbc="F F F"
Se       0.00000000       0.00000000       0.00000000       0.00000000       0.00000000       2.03413677
Se       0.00000000       0.00000000       3.17818182       0.00000000       0.00000000      -2.03413677
2
Properties=species:S:1:pos:R:3:forces:R:3 energy=-2.5144043409926167 pbc="F F F"
Se       0.00000000       0.00000000       0.00000000       0.00000000       0.00000000       1.69877183
Se       0.00000000       0.00000000       3.23696970       0.00000000       0.00000000      -1.69877183
2
Properties=species:S:1:pos:R:3:forces:R:3 energy=-2.423050312883712 pbc="F F F"
Se       0.00000000       0.00000000       0.00000000       0.00000000       0.00000000       1.41788507
Se       0.00000000       0.00000000       3.29575758       0.00000000       0.00000000      -1.41788507
2
Properties=species:S:1:pos:R:3:forces:R:3 energy=-2.346711137322744 pbc="F F F"
Se       0.00000000       0.00000000       0.00000000       0.00000000       0.00000000       1.18716598
Se       0.00000000       0.00000000       3.35454545       0.00000000       0.00000000      -1.18716598
2
Properties=species:S:1:pos:R:3:forces:R:3 energy=-2.2825839084729944 pbc="F F F"
Se       0.00000000       0.00000000       0.00000000       0.00000000       0.00000000       1.00155473
Se       0.00000000       0.00000000       3.41333333       0.00000000       0.00000000      -1.00155473
2
Properties=species:S:1:pos:R:3:forces:R:3 energy=-2.2281742103005135 pbc="F F F"
Se       0.00000000       0.00000000       0.00000000       0.00000000       0.00000000       0.85566050
Se       0.00000000       0.00000000       3.47212121       0.00000000       0.00000000      -0.85566050
2
Properties=species:S:1:pos:R:3:forces:R:3 energy=-2.181310831169839 pbc="F F F"
Se       0.00000000       0.00000000       0.00000000       0.00000000       0.00000000       0.74388093
Se       0.00000000       0.00000000       3.53090909       0.00000000       0.00000000      -0.74388093
2
Properties=species:S:1:pos:R:3:forces:R:3 energy=-2.1401554312997852 pbc="F F F"
Se       0.00000000       0.00000000       0.00000000       0.00000000       0.00000000       0.66049409
Se       0.00000000       0.00000000       3.58969697       0.00000000       0.00000000      -0.66049409
2
Properties=species:S:1:pos:R:3:forces:R:3 energy=-2.1032078133147634 pbc="F F F"
Se       0.00000000       0.00000000       0.00000000       0.00000000       0.00000000       0.59979451
Se       0.00000000       0.00000000       3.64848485       0.00000000       0.00000000      -0.59979451
2
Properties=species:S:1:pos:R:3:forces:R:3 energy=-2.0692978666982422 pbc="F F F"
Se       0.00000000       0.00000000       0.00000000       0.00000000       0.00000000       0.55627447
Se       0.00000000       0.00000000       3.70727273       0.00000000       0.00000000      -0.55627447
2
Properties=species:S:1:pos:R:3:forces:R:3 energy=-2.0375664246143375 pbc="F F F"
Se       0.00000000       0.00000000       0.00000000       0.00000000       0.00000000       0.52486783
Se       0.00000000       0.00000000       3.76606061       0.00000000       0.00000000      -0.52486783
2
Properties=species:S:1:pos:R:3:forces:R:3 energy=-2.0074353887255114 pbc="F F F"
Se       0.00000000       0.00000000       0.00000000       0.00000000       0.00000000       0.50119227
Se       0.00000000       0.00000000       3.82484848       0.00000000       0.00000000      -0.50119227
2
Properties=species:S:1:pos:R:3:forces:R:3 energy=-1.9785567947317546 pbc="F F F"
Se       0.00000000       0.00000000       0.00000000       0.00000000       0.00000000       0.48171863
Se       0.00000000       0.00000000       3.88363636       0.00000000       0.00000000      -0.48171863
2
Properties=species:S:1:pos:R:3:forces:R:3 energy=-1.9507659354413132 pbc="F F F"
Se       0.00000000       0.00000000       0.00000000       0.00000000       0.00000000       0.46385092
Se       0.00000000       0.00000000       3.94242424       0.00000000       0.00000000      -0.46385092
2
Properties=species:S:1:pos:R:3:forces:R:3 energy=-1.9240216733465758 pbc="F F F"
Se       0.00000000       0.00000000       0.00000000       0.00000000       0.00000000       0.44590002
Se       0.00000000       0.00000000       4.00121212       0.00000000       0.00000000      -0.44590002
2
Properties=species:S:1:pos:R:3:forces:R:3 energy=-1.898358730397726 pbc="F F F"
Se       0.00000000       0.00000000       0.00000000       0.00000000       0.00000000       0.42696336
Se       0.00000000       0.00000000       4.06000000       0.00000000       0.00000000      -0.42696336
2
Properties=species:S:1:pos:R:3:forces:R:3 energy=-1.8738462130894036 pbc="F F F"
Se       0.00000000       0.00000000       0.00000000       0.00000000       0.00000000       0.40677419
Se       0.00000000       0.00000000       4.11878788       0.00000000       0.00000000      -0.40677419
2
Properties=species:S:1:pos:R:3:forces:R:3 energy=-1.8505532916886498 pbc="F F F"
Se       0.00000000       0.00000000       0.00000000       0.00000000       0.00000000       0.38550699
Se       0.00000000       0.00000000       4.17757576       0.00000000       0.00000000      -0.38550699
2
Properties=species:S:1:pos:R:3:forces:R:3 energy=-1.828531826188903 pbc="F F F"
Se       0.00000000       0.00000000       0.00000000       0.00000000       0.00000000       0.36360654
Se       0.00000000       0.00000000       4.23636364       0.00000000       0.00000000      -0.36360654
2
Properties=species:S:1:pos:R:3:forces:R:3 energy=-1.8078030406281052 pbc="F F F"
Se       0.00000000       0.00000000       0.00000000       0.00000000       0.00000000       0.34162083
Se       0.00000000       0.00000000       4.29515152       0.00000000       0.00000000      -0.34162083
2
Properties=species:S:1:pos:R:3:forces:R:3 energy=-1.7883570672583466 pbc="F F F"
Se       0.00000000       0.00000000       0.00000000       0.00000000       0.00000000       0.32008350
Se       0.00000000       0.00000000       4.35393939       0.00000000       0.00000000      -0.32008350
2
Properties=species:S:1:pos:R:3:forces:R:3 energy=-1.7701523936809758 pbc="F F F"
Se       0.00000000       0.00000000       0.00000000       0.00000000       0.00000000       0.29942200
Se       0.00000000       0.00000000       4.41272727       0.00000000       0.00000000      -0.29942200
2
Properties=species:S:1:pos:R:3:forces:R:3 energy=-1.7531289932914722 pbc="F F F"
Se       0.00000000       0.00000000       0.00000000       0.00000000       0.00000000       0.27992806
Se       0.00000000       0.00000000       4.47151515       0.00000000       0.00000000      -0.27992806
2
Properties=species:S:1:pos:R:3:forces:R:3 energy=-1.737213219611921 pbc="F F F"
Se       0.00000000       0.00000000       0.00000000       0.00000000       0.00000000       0.26175293
Se       0.00000000       0.00000000       4.53030303       0.00000000       0.00000000      -0.26175293
2
Properties=species:S:1:pos:R:3:forces:R:3 energy=-1.7223266515371056 pbc="F F F"
Se       0.00000000       0.00000000       0.00000000       0.00000000       0.00000000       0.24493541
Se       0.00000000       0.00000000       4.58909091       0.00000000       0.00000000      -0.24493541
2
Properties=species:S:1:pos:R:3:forces:R:3 energy=-1.7083890894058587 pbc="F F F"
Se       0.00000000       0.00000000       0.00000000       0.00000000       0.00000000       0.22945072
Se       0.00000000       0.00000000       4.64787879       0.00000000       0.00000000      -0.22945072
2
Properties=species:S:1:pos:R:3:forces:R:3 energy=-1.695323451293442 pbc="F F F"
Se       0.00000000       0.00000000       0.00000000       0.00000000       0.00000000       0.21525165
Se       0.00000000       0.00000000       4.70666667       0.00000000       0.00000000      -0.21525165
2
Properties=species:S:1:pos:R:3:forces:R:3 energy=-1.6830561306394178 pbc="F F F"
Se       0.00000000       0.00000000       0.00000000       0.00000000       0.00000000       0.20231274
Se       0.00000000       0.00000000       4.76545455       0.00000000       0.00000000      -0.20231274
2
Properties=species:S:1:pos:R:3:forces:R:3 energy=-1.6715109878498784 pbc="F F F"
Se       0.00000000       0.00000000       0.00000000       0.00000000       0.00000000       0.19064812
Se       0.00000000       0.00000000       4.82424242       0.00000000       0.00000000      -0.19064812
2
Properties=species:S:1:pos:R:3:forces:R:3 energy=-1.6606146248085412 pbc="F F F"
Se       0.00000000       0.00000000       0.00000000       0.00000000       0.00000000       0.18032448
Se       0.00000000       0.00000000       4.88303030       0.00000000       0.00000000      -0.18032448
2
Properties=species:S:1:pos:R:3:forces:R:3 energy=-1.6502817387652016 pbc="F F F"
Se       0.00000000       0.00000000       0.00000000       0.00000000       0.00000000       0.17142048
Se       0.00000000       0.00000000       4.94181818       0.00000000       0.00000000      -0.17142048
2
Properties=species:S:1:pos:R:3:forces:R:3 energy=-1.6404303268558587 pbc="F F F"
Se       0.00000000       0.00000000       0.00000000       0.00000000       0.00000000       0.16398825
Se       0.00000000       0.00000000       5.00060606       0.00000000       0.00000000      -0.16398825
2
Properties=species:S:1:pos:R:3:forces:R:3 energy=-1.6309728150980867 pbc="F F F"
Se       0.00000000       0.00000000       0.00000000       0.00000000       0.00000000       0.15794837
Se       0.00000000       0.00000000       5.05939394       0.00000000       0.00000000      -0.15794837
2
Properties=species:S:1:pos:R:3:forces:R:3 energy=-1.6218379746853346 pbc="F F F"
Se       0.00000000       0.00000000       0.00000000       0.00000000       0.00000000       0.15298776
Se       0.00000000       0.00000000       5.11818182       0.00000000       0.00000000      -0.15298776
2
Properties=species:S:1:pos:R:3:forces:R:3 energy=-1.6129756519286842 pbc="F F F"
Se       0.00000000       0.00000000       0.00000000       0.00000000       0.00000000       0.14854150
Se       0.00000000       0.00000000       5.17696970       0.00000000       0.00000000      -0.14854150
2
Properties=species:S:1:pos:R:3:forces:R:3 energy=-1.604375876589221 pbc="F F F"
Se       0.00000000       0.00000000       0.00000000       0.00000000       0.00000000       0.14398004
Se       0.00000000       0.00000000       5.23575758       0.00000000       0.00000000      -0.14398004
2
Properties=species:S:1:pos:R:3:forces:R:3 energy=-1.5960559888586743 pbc="F F F"
Se       0.00000000       0.00000000       0.00000000       0.00000000       0.00000000       0.13899897
Se       0.00000000       0.00000000       5.29454545       0.00000000       0.00000000      -0.13899897
2
Properties=species:S:1:pos:R:3:forces:R:3 energy=-1.5880374553204866 pbc="F F F"
Se       0.00000000       0.00000000       0.00000000       0.00000000       0.00000000       0.13377471
Se       0.00000000       0.00000000       5.35333333       0.00000000       0.00000000      -0.13377471
2
Properties=species:S:1:pos:R:3:forces:R:3 energy=-1.580328230330715 pbc="F F F"
Se       0.00000000       0.00000000       0.00000000       0.00000000       0.00000000       0.12850483
Se       0.00000000       0.00000000       5.41212121       0.00000000       0.00000000      -0.12850483
2
Properties=species:S:1:pos:R:3:forces:R:3 energy=-1.57293922471899 pbc="F F F"
Se       0.00000000       0.00000000       0.00000000       0.00000000       0.00000000       0.12264328
Se       0.00000000       0.00000000       5.47090909       0.00000000       0.00000000      -0.12264328
2
Properties=species:S:1:pos:R:3:forces:R:3 energy=-1.565949895052411 pbc="F F F"
Se       0.00000000       0.00000000       0.00000000       0.00000000       0.00000000       0.11459006
Se       0.00000000       0.00000000       5.52969697       0.00000000       0.00000000      -0.11459006
2
Properties=species:S:1:pos:R:3:forces:R:3 energy=-1.5595477221052543 pbc="F F F"
Se       0.00000000       0.00000000       0.00000000       0.00000000       0.00000000       0.10242495
Se       0.00000000       0.00000000       5.58848485       0.00000000       0.00000000      -0.10242495
2
Properties=species:S:1:pos:R:3:forces:R:3 energy=-1.554008891430489 pbc="F F F"
Se       0.00000000       0.00000000       0.00000000       0.00000000       0.00000000       0.08533421
Se       0.00000000       0.00000000       5.64727273       0.00000000       0.00000000      -0.08533421
2
Properties=species:S:1:pos:R:3:forces:R:3 energy=-1.5495876869379612 pbc="F F F"
Se       0.00000000       0.00000000       0.00000000       0.00000000       0.00000000       0.06467156
Se       0.00000000       0.00000000       5.70606061       0.00000000       0.00000000      -0.06467156
2
Properties=species:S:1:pos:R:3:forces:R:3 energy=-1.546401108973398 pbc="F F F"
Se       0.00000000       0.00000000       0.00000000       0.00000000       0.00000000       0.04386254
Se       0.00000000       0.00000000       5.76484848       0.00000000       0.00000000      -0.04386254
2
Properties=species:S:1:pos:R:3:forces:R:3 energy=-1.544358772524529 pbc="F F F"
Se       0.00000000       0.00000000       0.00000000       0.00000000       0.00000000       0.02642263
Se       0.00000000       0.00000000       5.82363636       0.00000000       0.00000000      -0.02642263
2
Properties=species:S:1:pos:R:3:forces:R:3 energy=-1.5432016557838801 pbc="F F F"
Se       0.00000000       0.00000000       0.00000000       0.00000000       0.00000000       0.01390897
Se       0.00000000       0.00000000       5.88242424       0.00000000       0.00000000      -0.01390897
2
Properties=species:S:1:pos:R:3:forces:R:3 energy=-1.5426291847750115 pbc="F F F"
Se       0.00000000       0.00000000       0.00000000       0.00000000       0.00000000       0.00630587
Se       0.00000000       0.00000000       5.94121212       0.00000000       0.00000000      -0.00630587
2
Properties=species:S:1:pos:R:3:forces:R:3 energy=-1.5423645548954805 pbc="F F F"
Se       0.00000000       0.00000000       0.00000000       0.00000000       0.00000000       0.00354915
Se       0.00000000       0.00000000       6.00000000       0.00000000       0.00000000      -0.00354915
