2
Properties=species:S:1:pos:R:3:forces:R:3 energy=1364.3050460853242 pbc="F F F"
Si       0.00000000       0.00000000       0.00000000       0.00000000       0.00000000  -19524.37500000
Si       0.00000000       0.00000000       0.18000000       0.00000000       0.00000000   19524.37500000
2
Properties=species:S:1:pos:R:3:forces:R:3 energy=636.1224288978241 pbc="F F F"
Si       0.00000000       0.00000000       0.00000000       0.00000000       0.00000000   -7519.18505859
Si       0.00000000       0.00000000       0.23878788       0.00000000       0.00000000    7519.18505859
2
Properties=species:S:1:pos:R:3:forces:R:3 energy=334.9636459420076 pbc="F F F"
Si       0.00000000       0.00000000       0.00000000       0.00000000       0.00000000   -3378.63574219
Si       0.00000000       0.00000000       0.29757576       0.00000000       0.00000000    3378.63574219
2
Properties=species:S:1:pos:R:3:forces:R:3 energy=192.92598725693696 pbc="F F F"
Si       0.00000000       0.00000000       0.00000000       0.00000000       0.00000000   -1682.72338867
Si       0.00000000       0.00000000       0.35636364       0.00000000       0.00000000    1682.72338867
2
Properties=species:S:1:pos:R:3:forces:R:3 energy=119.8061981460731 pbc="F F F"
Si       0.00000000       0.00000000       0.00000000       0.00000000       0.00000000    -897.96502686
Si       0.00000000       0.00000000       0.41515152       0.00000000       0.00000000     897.96502686
2
Properties=species:S:1:pos:R:3:forces:R:3 energy=79.93174749098975 pbc="F F F"
Si       0.00000000       0.00000000       0.00000000       0.00000000       0.00000000    -500.75534058
Si       0.00000000       0.00000000       0.47393939       0.00000000       0.00000000     500.75534058
2
Properties=species:S:1:pos:R:3:forces:R:3 energy=57.43659983659678 pbc="F F F"
Si       0.00000000       0.00000000       0.00000000       0.00000000       0.00000000    -285.24844360
Si       0.00000000       0.00000000       0.53272727       0.00000000       0.00000000     285.24844360
2
Properties=species:S:1:pos:R:3:forces:R:3 energy=44.61630649878212 pbc="F F F"
Si       0.00000000       0.00000000       0.00000000       0.00000000       0.00000000    -161.89996338
Si       0.00000000       0.00000000       0.59151515       0.00000000       0.00000000     161.89996338
2
Properties=species:S:1:pos:R:3:forces:R:3 energy=37.418613779743836 pbc="F F F"
Si       0.00000000       0.00000000       0.00000000       0.00000000       0.00000000     -89.36523438
Si       0.00000000       0.00000000       0.65030303       0.00000000       0.00000000      89.36523438
2
Properties=species:S:1:pos:R:3:forces:R:3 energy=33.505722623055405 pbc="F F F"
Si       0.00000000       0.00000000       0.00000000       0.00000000       0.00000000     -47.90350342
Si       0.00000000       0.00000000       0.70909091       0.00000000       0.00000000      47.90350342
2
Properties=species:S:1:pos:R:3:forces:R:3 energy=31.389513947700117 pbc="F F F"
Si       0.00000000       0.00000000       0.00000000       0.00000000       0.00000000     -26.74640083
Si       0.00000000       0.00000000       0.76787879       0.00000000       0.00000000      26.74640083
2
Properties=species:S:1:pos:R:3:forces:R:3 energy=30.125146413139795 pbc="F F F"
Si       0.00000000       0.00000000       0.00000000       0.00000000       0.00000000     -17.70420074
Si       0.00000000       0.00000000       0.82666667       0.00000000       0.00000000      17.70420074
2
Properties=species:S:1:pos:R:3:forces:R:3 energy=29.184820470071994 pbc="F F F"
Si       0.00000000       0.00000000       0.00000000       0.00000000       0.00000000     -15.06544113
Si       0.00000000       0.00000000       0.88545455       0.00000000       0.00000000      15.06544113
2
Properties=species:S:1:pos:R:3:forces:R:3 energy=28.282905017882694 pbc="F F F"
Si       0.00000000       0.00000000       0.00000000       0.00000000       0.00000000     -16.06951141
Si       0.00000000       0.00000000       0.94424242       0.00000000       0.00000000      16.06951141
2
Properties=species:S:1:pos:R:3:forces:R:3 energy=27.23406880066643 pbc="F F F"
Si       0.00000000       0.00000000       0.00000000       0.00000000       0.00000000     -20.47623253
Si       0.00000000       0.00000000       1.00303030       0.00000000       0.00000000      20.47623253
2
Properties=species:S:1:pos:R:3:forces:R:3 energy=25.734202352764893 pbc="F F F"
Si       0.00000000       0.00000000       0.00000000       0.00000000       0.00000000     -31.68951607
Si       0.00000000       0.00000000       1.06181818       0.00000000       0.00000000      31.68951607
2
Properties=species:S:1:pos:R:3:forces:R:3 energy=23.442504574548586 pbc="F F F"
Si       0.00000000       0.00000000       0.00000000       0.00000000       0.00000000     -46.19157791
Si       0.00000000       0.00000000       1.12060606       0.00000000       0.00000000      46.19157791
2
Properties=species:S:1:pos:R:3:forces:R:3 energy=20.37089083765344 pbc="F F F"
Si       0.00000000       0.00000000       0.00000000       0.00000000       0.00000000     -57.34683228
Si       0.00000000       0.00000000       1.17939394       0.00000000       0.00000000      57.34683228
2
Properties=species:S:1:pos:R:3:forces:R:3 energy=16.84602529676041 pbc="F F F"
Si       0.00000000       0.00000000       0.00000000       0.00000000       0.00000000     -61.13559341
Si       0.00000000       0.00000000       1.23818182       0.00000000       0.00000000      61.13559341
2
Properties=species:S:1:pos:R:3:forces:R:3 energy=13.338025752090228 pbc="F F F"
Si       0.00000000       0.00000000       0.00000000       0.00000000       0.00000000     -57.28647995
Si       0.00000000       0.00000000       1.29696970       0.00000000       0.00000000      57.28647995
2
Properties=species:S:1:pos:R:3:forces:R:3 energy=10.150833239582397 pbc="F F F"
Si       0.00000000       0.00000000       0.00000000       0.00000000       0.00000000     -51.23715591
Si       0.00000000       0.00000000       1.35575758       0.00000000       0.00000000      51.23715591
2
Properties=species:S:1:pos:R:3:forces:R:3 energy=7.292442718310095 pbc="F F F"
Si       0.00000000       0.00000000       0.00000000       0.00000000       0.00000000     -46.11829758
Si       0.00000000       0.00000000       1.41454545       0.00000000       0.00000000      46.11829758
2
Properties=species:S:1:pos:R:3:forces:R:3 energy=4.732202493697968 pbc="F F F"
Si       0.00000000       0.00000000       0.00000000       0.00000000       0.00000000     -40.83554840
Si       0.00000000       0.00000000       1.47333333       0.00000000       0.00000000      40.83554840
2
Properties=species:S:1:pos:R:3:forces:R:3 energy=2.5109349940053747 pbc="F F F"
Si       0.00000000       0.00000000       0.00000000       0.00000000       0.00000000     -34.60828781
Si       0.00000000       0.00000000       1.53212121       0.00000000       0.00000000      34.60828781
2
Properties=species:S:1:pos:R:3:forces:R:3 energy=0.6667572750286969 pbc="F F F"
Si       0.00000000       0.00000000       0.00000000       0.00000000       0.00000000     -28.19355392
Si       0.00000000       0.00000000       1.59090909       0.00000000       0.00000000      28.19355392
2
Properties=species:S:1:pos:R:3:forces:R:3 energy=-0.8182553718983373 pbc="F F F"
Si       0.00000000       0.00000000       0.00000000       0.00000000       0.00000000     -22.48303795
Si       0.00000000       0.00000000       1.64969697       0.00000000       0.00000000      22.48303795
2
Properties=species:S:1:pos:R:3:forces:R:3 energy=-1.995752586844811 pbc="F F F"
Si       0.00000000       0.00000000       0.00000000       0.00000000       0.00000000     -17.73509979
Si       0.00000000       0.00000000       1.70848485       0.00000000       0.00000000      17.73509979
2
Properties=species:S:1:pos:R:3:forces:R:3 energy=-2.92089408306112 pbc="F F F"
Si       0.00000000       0.00000000       0.00000000       0.00000000       0.00000000     -13.87334156
Si       0.00000000       0.00000000       1.76727273       0.00000000       0.00000000      13.87334156
2
Properties=species:S:1:pos:R:3:forces:R:3 energy=-3.640765132974651 pbc="F F F"
Si       0.00000000       0.00000000       0.00000000       0.00000000       0.00000000     -10.71733189
Si       0.00000000       0.00000000       1.82606061       0.00000000       0.00000000      10.71733189
2
Properties=species:S:1:pos:R:3:forces:R:3 energy=-4.190883030837649 pbc="F F F"
Si       0.00000000       0.00000000       0.00000000       0.00000000       0.00000000      -8.06808853
Si       0.00000000       0.00000000       1.88484848       0.00000000       0.00000000       8.06808853
2
Properties=species:S:1:pos:R:3:forces:R:3 energy=-4.59650041997719 pbc="F F F"
Si       0.00000000       0.00000000       0.00000000       0.00000000       0.00000000      -5.78567696
Si       0.00000000       0.00000000       1.94363636       0.00000000       0.00000000       5.78567696
2
Properties=species:S:1:pos:R:3:forces:R:3 energy=-4.877297582675981 pbc="F F F"
Si       0.00000000       0.00000000       0.00000000       0.00000000       0.00000000      -3.81962395
Si       0.00000000       0.00000000       2.00242424       0.00000000       0.00000000       3.81962395
2
Properties=species:S:1:pos:R:3:forces:R:3 energy=-5.0519676714395985 pbc="F F F"
Si       0.00000000       0.00000000       0.00000000       0.00000000       0.00000000      -2.17891908
Si       0.00000000       0.00000000       2.06121212       0.00000000       0.00000000       2.17891908
2
Properties=species:S:1:pos:R:3:forces:R:3 energy=-5.140215151701535 pbc="F F F"
Si       0.00000000       0.00000000       0.00000000       0.00000000       0.00000000      -0.88066065
Si       0.00000000       0.00000000       2.12000000       0.00000000       0.00000000       0.88066065
2
Properties=species:S:1:pos:R:3:forces:R:3 energy=-5.162073574562694 pbc="F F F"
Si       0.00000000       0.00000000       0.00000000       0.00000000       0.00000000       0.08389347
Si       0.00000000       0.00000000       2.17878788       0.00000000       0.00000000      -0.08389347
2
Properties=species:S:1:pos:R:3:forces:R:3 energy=-5.1360909214687736 pbc="F F F"
Si       0.00000000       0.00000000       0.00000000       0.00000000       0.00000000       0.75634307
Si       0.00000000       0.00000000       2.23757576       0.00000000       0.00000000      -0.75634307
2
Properties=species:S:1:pos:R:3:forces:R:3 energy=-5.077606526964609 pbc="F F F"
Si       0.00000000       0.00000000       0.00000000       0.00000000       0.00000000       1.20137942
Si       0.00000000       0.00000000       2.29636364       0.00000000       0.00000000      -1.20137942
2
Properties=species:S:1:pos:R:3:forces:R:3 energy=-4.9978957198675396 pbc="F F F"
Si       0.00000000       0.00000000       0.00000000       0.00000000       0.00000000       1.49008465
Si       0.00000000       0.00000000       2.35515152       0.00000000       0.00000000      -1.49008465
2
Properties=species:S:1:pos:R:3:forces:R:3 energy=-4.904211284101725 pbc="F F F"
Si       0.00000000       0.00000000       0.00000000       0.00000000       0.00000000       1.68619442
Si       0.00000000       0.00000000       2.41393939       0.00000000       0.00000000      -1.68619442
2
Properties=species:S:1:pos:R:3:forces:R:3 energy=-4.800503271427545 pbc="F F F"
Si       0.00000000       0.00000000       0.00000000       0.00000000       0.00000000       1.83752584
Si       0.00000000       0.00000000       2.47272727       0.00000000       0.00000000      -1.83752584
2
Properties=species:S:1:pos:R:3:forces:R:3 energy=-4.688473256785495 pbc="F F F"
Si       0.00000000       0.00000000       0.00000000       0.00000000       0.00000000       1.97246909
Si       0.00000000       0.00000000       2.53151515       0.00000000       0.00000000      -1.97246909
2
Properties=species:S:1:pos:R:3:forces:R:3 energy=-4.568712710921821 pbc="F F F"
Si       0.00000000       0.00000000       0.00000000       0.00000000       0.00000000       2.10067987
Si       0.00000000       0.00000000       2.59030303       0.00000000       0.00000000      -2.10067987
2
Properties=species:S:1:pos:R:3:forces:R:3 energy=-4.441692013228813 pbc="F F F"
Si       0.00000000       0.00000000       0.00000000       0.00000000       0.00000000       2.21800995
Si       0.00000000       0.00000000       2.64909091       0.00000000       0.00000000      -2.21800995
2
Properties=species:S:1:pos:R:3:forces:R:3 energy=-4.308323926420048 pbc="F F F"
Si       0.00000000       0.00000000       0.00000000       0.00000000       0.00000000       2.31524539
Si       0.00000000       0.00000000       2.70787879       0.00000000       0.00000000      -2.31524539
2
Properties=species:S:1:pos:R:3:forces:R:3 energy=-4.16998707499771 pbc="F F F"
Si       0.00000000       0.00000000       0.00000000       0.00000000       0.00000000       2.38656616
Si       0.00000000       0.00000000       2.76666667       0.00000000       0.00000000      -2.38656616
2
Properties=species:S:1:pos:R:3:forces:R:3 energy=-4.028256407100678 pbc="F F F"
Si       0.00000000       0.00000000       0.00000000       0.00000000       0.00000000       2.43060970
Si       0.00000000       0.00000000       2.82545455       0.00000000       0.00000000      -2.43060970
2
Properties=species:S:1:pos:R:3:forces:R:3 energy=-3.8847585533926496 pbc="F F F"
Si       0.00000000       0.00000000       0.00000000       0.00000000       0.00000000       2.44650841
Si       0.00000000       0.00000000       2.88424242       0.00000000       0.00000000      -2.44650841
2
Properties=species:S:1:pos:R:3:forces:R:3 energy=-3.7411561729043084 pbc="F F F"
Si       0.00000000       0.00000000       0.00000000       0.00000000       0.00000000       2.43436050
Si       0.00000000       0.00000000       2.94303030       0.00000000       0.00000000      -2.43436050
2
Properties=species:S:1:pos:R:3:forces:R:3 energy=-3.5990420681742954 pbc="F F F"
Si       0.00000000       0.00000000       0.00000000       0.00000000       0.00000000       2.39645123
Si       0.00000000       0.00000000       3.00181818       0.00000000       0.00000000      -2.39645123
2
Properties=species:S:1:pos:R:3:forces:R:3 energy=-3.4598420764896893 pbc="F F F"
Si       0.00000000       0.00000000       0.00000000       0.00000000       0.00000000       2.33560038
Si       0.00000000       0.00000000       3.06060606       0.00000000       0.00000000      -2.33560038
2
Properties=species:S:1:pos:R:3:forces:R:3 energy=-3.324838497838509 pbc="F F F"
Si       0.00000000       0.00000000       0.00000000       0.00000000       0.00000000       2.25403810
Si       0.00000000       0.00000000       3.11939394       0.00000000       0.00000000      -2.25403810
2
Properties=species:S:1:pos:R:3:forces:R:3 energy=-3.1951864510440355 pbc="F F F"
Si       0.00000000       0.00000000       0.00000000       0.00000000       0.00000000       2.15386701
Si       0.00000000       0.00000000       3.17818182       0.00000000       0.00000000      -2.15386701
2
Properties=species:S:1:pos:R:3:forces:R:3 energy=-3.0719045756654184 pbc="F F F"
Si       0.00000000       0.00000000       0.00000000       0.00000000       0.00000000       2.03793812
Si       0.00000000       0.00000000       3.23696970       0.00000000       0.00000000      -2.03793812
2
Properties=species:S:1:pos:R:3:forces:R:3 energy=-2.9558063756715596 pbc="F F F"
Si       0.00000000       0.00000000       0.00000000       0.00000000       0.00000000       1.91024578
Si       0.00000000       0.00000000       3.29575758       0.00000000       0.00000000      -1.91024578
2
Properties=species:S:1:pos:R:3:forces:R:3 energy=-2.8474420531801106 pbc="F F F"
Si       0.00000000       0.00000000       0.00000000       0.00000000       0.00000000       1.77564502
Si       0.00000000       0.00000000       3.35454545       0.00000000       0.00000000      -1.77564502
2
Properties=species:S:1:pos:R:3:forces:R:3 energy=-2.7470693163731443 pbc="F F F"
Si       0.00000000       0.00000000       0.00000000       0.00000000       0.00000000       1.63913047
Si       0.00000000       0.00000000       3.41333333       0.00000000       0.00000000      -1.63913047
2
Properties=species:S:1:pos:R:3:forces:R:3 energy=-2.654669150481636 pbc="F F F"
Si       0.00000000       0.00000000       0.00000000       0.00000000       0.00000000       1.50512087
Si       0.00000000       0.00000000       3.47212121       0.00000000       0.00000000      -1.50512087
2
Properties=species:S:1:pos:R:3:forces:R:3 energy=-2.5699891274436344 pbc="F F F"
Si       0.00000000       0.00000000       0.00000000       0.00000000       0.00000000       1.37696683
Si       0.00000000       0.00000000       3.53090909       0.00000000       0.00000000      -1.37696683
2
Properties=species:S:1:pos:R:3:forces:R:3 energy=-2.492613518309614 pbc="F F F"
Si       0.00000000       0.00000000       0.00000000       0.00000000       0.00000000       1.25682104
Si       0.00000000       0.00000000       3.58969697       0.00000000       0.00000000      -1.25682104
2
Properties=species:S:1:pos:R:3:forces:R:3 energy=-2.42203682670323 pbc="F F F"
Si       0.00000000       0.00000000       0.00000000       0.00000000       0.00000000       1.14580119
Si       0.00000000       0.00000000       3.64848485       0.00000000       0.00000000      -1.14580119
2
Properties=species:S:1:pos:R:3:forces:R:3 energy=-2.3577113988453107 pbc="F F F"
Si       0.00000000       0.00000000       0.00000000       0.00000000       0.00000000       1.04421651
Si       0.00000000       0.00000000       3.70727273       0.00000000       0.00000000      -1.04421651
2
Properties=species:S:1:pos:R:3:forces:R:3 energy=-2.299081599774044 pbc="F F F"
Si       0.00000000       0.00000000       0.00000000       0.00000000       0.00000000       0.95185757
Si       0.00000000       0.00000000       3.76606061       0.00000000       0.00000000      -0.95185757
2
Properties=species:S:1:pos:R:3:forces:R:3 energy=-2.24562408074227 pbc="F F F"
Si       0.00000000       0.00000000       0.00000000       0.00000000       0.00000000       0.86823934
Si       0.00000000       0.00000000       3.82484848       0.00000000       0.00000000      -0.86823934
2
Properties=species:S:1:pos:R:3:forces:R:3 energy=-2.1968379723775158 pbc="F F F"
Si       0.00000000       0.00000000       0.00000000       0.00000000       0.00000000       0.79275769
Si       0.00000000       0.00000000       3.88363636       0.00000000       0.00000000      -0.79275769
2
Properties=species:S:1:pos:R:3:forces:R:3 energy=-2.1522663011724257 pbc="F F F"
Si       0.00000000       0.00000000       0.00000000       0.00000000       0.00000000       0.72481447
Si       0.00000000       0.00000000       3.94242424       0.00000000       0.00000000      -0.72481447
2
Properties=species:S:1:pos:R:3:forces:R:3 energy=-2.1114815228110873 pbc="F F F"
Si       0.00000000       0.00000000       0.00000000       0.00000000       0.00000000       0.66385704
Si       0.00000000       0.00000000       4.00121212       0.00000000       0.00000000      -0.66385704
2
Properties=species:S:1:pos:R:3:forces:R:3 energy=-2.074086330123527 pbc="F F F"
Si       0.00000000       0.00000000       0.00000000       0.00000000       0.00000000       0.60938007
Si       0.00000000       0.00000000       4.06000000       0.00000000       0.00000000      -0.60938007
2
Properties=species:S:1:pos:R:3:forces:R:3 energy=-2.039715007569456 pbc="F F F"
Si       0.00000000       0.00000000       0.00000000       0.00000000       0.00000000       0.56091750
Si       0.00000000       0.00000000       4.11878788       0.00000000       0.00000000      -0.56091750
2
Properties=species:S:1:pos:R:3:forces:R:3 energy=-2.0080275939828183 pbc="F F F"
Si       0.00000000       0.00000000       0.00000000       0.00000000       0.00000000       0.51798141
Si       0.00000000       0.00000000       4.17757576       0.00000000       0.00000000      -0.51798141
2
Properties=species:S:1:pos:R:3:forces:R:3 energy=-1.9787150169067607 pbc="F F F"
Si       0.00000000       0.00000000       0.00000000       0.00000000       0.00000000       0.48002839
Si       0.00000000       0.00000000       4.23636364       0.00000000       0.00000000      -0.48002839
2
Properties=species:S:1:pos:R:3:forces:R:3 energy=-1.9515019397773365 pbc="F F F"
Si       0.00000000       0.00000000       0.00000000       0.00000000       0.00000000       0.44644111
Si       0.00000000       0.00000000       4.29515152       0.00000000       0.00000000      -0.44644111
2
Properties=species:S:1:pos:R:3:forces:R:3 energy=-1.9261526431924336 pbc="F F F"
Si       0.00000000       0.00000000       0.00000000       0.00000000       0.00000000       0.41652912
Si       0.00000000       0.00000000       4.35393939       0.00000000       0.00000000      -0.41652912
2
Properties=species:S:1:pos:R:3:forces:R:3 energy=-1.9024708395941754 pbc="F F F"
Si       0.00000000       0.00000000       0.00000000       0.00000000       0.00000000       0.38956976
Si       0.00000000       0.00000000       4.41272727       0.00000000       0.00000000      -0.38956976
2
Properties=species:S:1:pos:R:3:forces:R:3 energy=-1.88030416520806 pbc="F F F"
Si       0.00000000       0.00000000       0.00000000       0.00000000       0.00000000       0.36487395
Si       0.00000000       0.00000000       4.47151515       0.00000000       0.00000000      -0.36487395
2
Properties=species:S:1:pos:R:3:forces:R:3 energy=-1.859537537584878 pbc="F F F"
Si       0.00000000       0.00000000       0.00000000       0.00000000       0.00000000       0.34184858
Si       0.00000000       0.00000000       4.53030303       0.00000000       0.00000000      -0.34184858
2
Properties=species:S:1:pos:R:3:forces:R:3 energy=-1.8400875420926832 pbc="F F F"
Si       0.00000000       0.00000000       0.00000000       0.00000000       0.00000000       0.32003847
Si       0.00000000       0.00000000       4.58909091       0.00000000       0.00000000      -0.32003847
2
Properties=species:S:1:pos:R:3:forces:R:3 energy=-1.8218919874327357 pbc="F F F"
Si       0.00000000       0.00000000       0.00000000       0.00000000       0.00000000       0.29911983
Si       0.00000000       0.00000000       4.64787879       0.00000000       0.00000000      -0.29911983
2
Properties=species:S:1:pos:R:3:forces:R:3 energy=-1.8049049558701373 pbc="F F F"
Si       0.00000000       0.00000000       0.00000000       0.00000000       0.00000000       0.27886230
Si       0.00000000       0.00000000       4.70666667       0.00000000       0.00000000      -0.27886230
2
Properties=species:S:1:pos:R:3:forces:R:3 energy=-1.7890949929197348 pbc="F F F"
Si       0.00000000       0.00000000       0.00000000       0.00000000       0.00000000       0.25908148
Si       0.00000000       0.00000000       4.76545455       0.00000000       0.00000000      -0.25908148
2
Properties=species:S:1:pos:R:3:forces:R:3 energy=-1.7744376874438086 pbc="F F F"
Si       0.00000000       0.00000000       0.00000000       0.00000000       0.00000000       0.23958440
Si       0.00000000       0.00000000       4.82424242       0.00000000       0.00000000      -0.23958440
2
Properties=species:S:1:pos:R:3:forces:R:3 energy=-1.7609241957002522 pbc="F F F"
Si       0.00000000       0.00000000       0.00000000       0.00000000       0.00000000       0.22020097
Si       0.00000000       0.00000000       4.88303030       0.00000000       0.00000000      -0.22020097
2
Properties=species:S:1:pos:R:3:forces:R:3 energy=-1.7485477865319627 pbc="F F F"
Si       0.00000000       0.00000000       0.00000000       0.00000000       0.00000000       0.20082000
Si       0.00000000       0.00000000       4.94181818       0.00000000       0.00000000      -0.20082000
2
Properties=species:S:1:pos:R:3:forces:R:3 energy=-1.7373102576616752 pbc="F F F"
Si       0.00000000       0.00000000       0.00000000       0.00000000       0.00000000       0.18150283
Si       0.00000000       0.00000000       5.00060606       0.00000000       0.00000000      -0.18150283
2
Properties=species:S:1:pos:R:3:forces:R:3 energy=-1.7271998657183245 pbc="F F F"
Si       0.00000000       0.00000000       0.00000000       0.00000000       0.00000000       0.16256343
Si       0.00000000       0.00000000       5.05939394       0.00000000       0.00000000      -0.16256343
2
Properties=species:S:1:pos:R:3:forces:R:3 energy=-1.7181761660664294 pbc="F F F"
Si       0.00000000       0.00000000       0.00000000       0.00000000       0.00000000       0.14468716
Si       0.00000000       0.00000000       5.11818182       0.00000000       0.00000000      -0.14468716
2
Properties=species:S:1:pos:R:3:forces:R:3 energy=-1.7101454346856417 pbc="F F F"
Si       0.00000000       0.00000000       0.00000000       0.00000000       0.00000000       0.12903336
Si       0.00000000       0.00000000       5.17696970       0.00000000       0.00000000      -0.12903336
2
Properties=species:S:1:pos:R:3:forces:R:3 energy=-1.702934751821622 pbc="F F F"
Si       0.00000000       0.00000000       0.00000000       0.00000000       0.00000000       0.11697371
Si       0.00000000       0.00000000       5.23575758       0.00000000       0.00000000      -0.11697371
2
Properties=species:S:1:pos:R:3:forces:R:3 energy=-1.696315490967816 pbc="F F F"
Si       0.00000000       0.00000000       0.00000000       0.00000000       0.00000000       0.10873044
Si       0.00000000       0.00000000       5.29454545       0.00000000       0.00000000      -0.10873044
2
Properties=species:S:1:pos:R:3:forces:R:3 energy=-1.6901277301821855 pbc="F F F"
Si       0.00000000       0.00000000       0.00000000       0.00000000       0.00000000       0.10156113
Si       0.00000000       0.00000000       5.35333333       0.00000000       0.00000000      -0.10156113
2
Properties=species:S:1:pos:R:3:forces:R:3 energy=-1.6844405996690335 pbc="F F F"
Si       0.00000000       0.00000000       0.00000000       0.00000000       0.00000000       0.09109724
Si       0.00000000       0.00000000       5.41212121       0.00000000       0.00000000      -0.09109724
2
Properties=species:S:1:pos:R:3:forces:R:3 energy=-1.6795055913352759 pbc="F F F"
Si       0.00000000       0.00000000       0.00000000       0.00000000       0.00000000       0.07631768
Si       0.00000000       0.00000000       5.47090909       0.00000000       0.00000000      -0.07631768
2
Properties=species:S:1:pos:R:3:forces:R:3 energy=-1.6754652445489124 pbc="F F F"
Si       0.00000000       0.00000000       0.00000000       0.00000000       0.00000000       0.06171412
Si       0.00000000       0.00000000       5.52969697       0.00000000       0.00000000      -0.06171412
2
Properties=species:S:1:pos:R:3:forces:R:3 energy=-1.6721262805655899 pbc="F F F"
Si       0.00000000       0.00000000       0.00000000       0.00000000       0.00000000       0.05321419
Si       0.00000000       0.00000000       5.58848485       0.00000000       0.00000000      -0.05321419
2
Properties=species:S:1:pos:R:3:forces:R:3 energy=-1.6690656469032328 pbc="F F F"
Si       0.00000000       0.00000000       0.00000000       0.00000000       0.00000000       0.05173943
Si       0.00000000       0.00000000       5.64727273       0.00000000       0.00000000      -0.05173943
2
Properties=species:S:1:pos:R:3:forces:R:3 energy=-1.6660232739372474 pbc="F F F"
Si       0.00000000       0.00000000       0.00000000       0.00000000       0.00000000       0.05130656
Si       0.00000000       0.00000000       5.70606061       0.00000000       0.00000000      -0.05130656
2
Properties=species:S:1:pos:R:3:forces:R:3 energy=-1.6631415948736294 pbc="F F F"
Si       0.00000000       0.00000000       0.00000000       0.00000000       0.00000000       0.04538572
Si       0.00000000       0.00000000       5.76484848       0.00000000       0.00000000      -0.04538572
2
Properties=species:S:1:pos:R:3:forces:R:3 energy=-1.6608088219631585 pbc="F F F"
Si       0.00000000       0.00000000       0.00000000       0.00000000       0.00000000       0.03335401
Si       0.00000000       0.00000000       5.82363636       0.00000000       0.00000000      -0.03335401
2
Properties=species:S:1:pos:R:3:forces:R:3 energy=-1.6592572844714808 pbc="F F F"
Si       0.00000000       0.00000000       0.00000000       0.00000000       0.00000000       0.01969060
Si       0.00000000       0.00000000       5.88242424       0.00000000       0.00000000      -0.01969060
2
Properties=species:S:1:pos:R:3:forces:R:3 energy=-1.6584275637471317 pbc="F F F"
Si       0.00000000       0.00000000       0.00000000       0.00000000       0.00000000       0.00931143
Si       0.00000000       0.00000000       5.94121212       0.00000000       0.00000000      -0.00931143
2
Properties=species:S:1:pos:R:3:forces:R:3 energy=-1.658035731616598 pbc="F F F"
Si       0.00000000       0.00000000       0.00000000       0.00000000       0.00000000       0.00526128
Si       0.00000000       0.00000000       6.00000000       0.00000000       0.00000000      -0.00526128
