2
Properties=species:S:1:pos:R:3:forces:R:3 energy=59158.40203224543 pbc="F F F"
Sm       0.00000000       0.00000000       0.00000000       0.00000000       0.00000000 -1462646.25000000
Sm       0.00000000       0.00000000       0.10000000       0.00000000       0.00000000 1462646.25000000
2
Properties=species:S:1:pos:R:3:forces:R:3 energy=16733.92351662043 pbc="F F F"
Sm       0.00000000       0.00000000       0.00000000       0.00000000       0.00000000 -308721.90625000
Sm       0.00000000       0.00000000       0.15959596       0.00000000       0.00000000  308721.90625000
2
Properties=species:S:1:pos:R:3:forces:R:3 energy=6185.084161151679 pbc="F F F"
Sm       0.00000000       0.00000000       0.00000000       0.00000000       0.00000000  -94403.43750000
Sm       0.00000000       0.00000000       0.21919192       0.00000000       0.00000000   94403.43750000
2
Properties=species:S:1:pos:R:3:forces:R:3 energy=2647.9179013860544 pbc="F F F"
Sm       0.00000000       0.00000000       0.00000000       0.00000000       0.00000000  -35314.33984375
Sm       0.00000000       0.00000000       0.27878788       0.00000000       0.00000000   35314.33984375
2
Properties=species:S:1:pos:R:3:forces:R:3 energy=1249.4210752141792 pbc="F F F"
Sm       0.00000000       0.00000000       0.00000000       0.00000000       0.00000000  -14890.92187500
Sm       0.00000000       0.00000000       0.33838384       0.00000000       0.00000000   14890.92187500
2
Properties=species:S:1:pos:R:3:forces:R:3 energy=637.584344257148 pbc="F F F"
Sm       0.00000000       0.00000000       0.00000000       0.00000000       0.00000000   -6803.38085938
Sm       0.00000000       0.00000000       0.39797980       0.00000000       0.00000000    6803.38085938
2
Properties=species:S:1:pos:R:3:forces:R:3 energy=350.1676572581005 pbc="F F F"
Sm       0.00000000       0.00000000       0.00000000       0.00000000       0.00000000   -3303.58178711
Sm       0.00000000       0.00000000       0.45757576       0.00000000       0.00000000    3303.58178711
2
Properties=species:S:1:pos:R:3:forces:R:3 energy=207.3848203567093 pbc="F F F"
Sm       0.00000000       0.00000000       0.00000000       0.00000000       0.00000000   -1686.05334473
Sm       0.00000000       0.00000000       0.51717172       0.00000000       0.00000000    1686.05334473
2
Properties=species:S:1:pos:R:3:forces:R:3 energy=133.13004438107532 pbc="F F F"
Sm       0.00000000       0.00000000       0.00000000       0.00000000       0.00000000    -895.88275146
Sm       0.00000000       0.00000000       0.57676768       0.00000000       0.00000000     895.88275146
2
Properties=species:S:1:pos:R:3:forces:R:3 energy=93.1211180401589 pbc="F F F"
Sm       0.00000000       0.00000000       0.00000000       0.00000000       0.00000000    -489.80618286
Sm       0.00000000       0.00000000       0.63636364       0.00000000       0.00000000     489.80618286
2
Properties=species:S:1:pos:R:3:forces:R:3 energy=71.0903716435544 pbc="F F F"
Sm       0.00000000       0.00000000       0.00000000       0.00000000       0.00000000    -271.14953613
Sm       0.00000000       0.00000000       0.69595960       0.00000000       0.00000000     271.14953613
2
Properties=species:S:1:pos:R:3:forces:R:3 energy=58.913030283743076 pbc="F F F"
Sm       0.00000000       0.00000000       0.00000000       0.00000000       0.00000000    -149.07302856
Sm       0.00000000       0.00000000       0.75555556       0.00000000       0.00000000     149.07302856
2
Properties=species:S:1:pos:R:3:forces:R:3 energy=52.27482396653623 pbc="F F F"
Sm       0.00000000       0.00000000       0.00000000       0.00000000       0.00000000     -80.39212799
Sm       0.00000000       0.00000000       0.81515152       0.00000000       0.00000000      80.39212799
2
Properties=species:S:1:pos:R:3:forces:R:3 energy=48.70379833355947 pbc="F F F"
Sm       0.00000000       0.00000000       0.00000000       0.00000000       0.00000000     -43.54639816
Sm       0.00000000       0.00000000       0.87474747       0.00000000       0.00000000      43.54639816
2
Properties=species:S:1:pos:R:3:forces:R:3 energy=46.707029698925666 pbc="F F F"
Sm       0.00000000       0.00000000       0.00000000       0.00000000       0.00000000     -25.78864479
Sm       0.00000000       0.00000000       0.93434343       0.00000000       0.00000000      25.78864479
2
Properties=species:S:1:pos:R:3:forces:R:3 energy=45.4365299593153 pbc="F F F"
Sm       0.00000000       0.00000000       0.00000000       0.00000000       0.00000000     -17.89509773
Sm       0.00000000       0.00000000       0.99393939       0.00000000       0.00000000      17.89509773
2
Properties=species:S:1:pos:R:3:forces:R:3 energy=44.49111505803969 pbc="F F F"
Sm       0.00000000       0.00000000       0.00000000       0.00000000       0.00000000     -14.33666706
Sm       0.00000000       0.00000000       1.05353535       0.00000000       0.00000000      14.33666706
2
Properties=species:S:1:pos:R:3:forces:R:3 energy=43.66968566270333 pbc="F F F"
Sm       0.00000000       0.00000000       0.00000000       0.00000000       0.00000000     -13.75843906
Sm       0.00000000       0.00000000       1.11313131       0.00000000       0.00000000      13.75843906
2
Properties=species:S:1:pos:R:3:forces:R:3 energy=42.780270986124776 pbc="F F F"
Sm       0.00000000       0.00000000       0.00000000       0.00000000       0.00000000     -16.73763084
Sm       0.00000000       0.00000000       1.17272727       0.00000000       0.00000000      16.73763084
2
Properties=species:S:1:pos:R:3:forces:R:3 energy=41.595904221079024 pbc="F F F"
Sm       0.00000000       0.00000000       0.00000000       0.00000000       0.00000000     -23.65210533
Sm       0.00000000       0.00000000       1.23232323       0.00000000       0.00000000      23.65210533
2
Properties=species:S:1:pos:R:3:forces:R:3 energy=39.89395210711997 pbc="F F F"
Sm       0.00000000       0.00000000       0.00000000       0.00000000       0.00000000     -33.89988708
Sm       0.00000000       0.00000000       1.29191919       0.00000000       0.00000000      33.89988708
2
Properties=species:S:1:pos:R:3:forces:R:3 energy=37.52491672176423 pbc="F F F"
Sm       0.00000000       0.00000000       0.00000000       0.00000000       0.00000000     -45.66530609
Sm       0.00000000       0.00000000       1.35151515       0.00000000       0.00000000      45.66530609
2
Properties=species:S:1:pos:R:3:forces:R:3 energy=34.46425440417506 pbc="F F F"
Sm       0.00000000       0.00000000       0.00000000       0.00000000       0.00000000     -56.79379272
Sm       0.00000000       0.00000000       1.41111111       0.00000000       0.00000000      56.79379272
2
Properties=species:S:1:pos:R:3:forces:R:3 energy=30.799319941099537 pbc="F F F"
Sm       0.00000000       0.00000000       0.00000000       0.00000000       0.00000000     -65.72672272
Sm       0.00000000       0.00000000       1.47070707       0.00000000       0.00000000      65.72672272
2
Properties=species:S:1:pos:R:3:forces:R:3 energy=26.699037790915586 pbc="F F F"
Sm       0.00000000       0.00000000       0.00000000       0.00000000       0.00000000     -71.19298553
Sm       0.00000000       0.00000000       1.53030303       0.00000000       0.00000000      71.19298553
2
Properties=species:S:1:pos:R:3:forces:R:3 energy=22.405607075113046 pbc="F F F"
Sm       0.00000000       0.00000000       0.00000000       0.00000000       0.00000000     -72.07015228
Sm       0.00000000       0.00000000       1.58989899       0.00000000       0.00000000      72.07015228
2
Properties=species:S:1:pos:R:3:forces:R:3 energy=18.202513345673744 pbc="F F F"
Sm       0.00000000       0.00000000       0.00000000       0.00000000       0.00000000     -68.29303741
Sm       0.00000000       0.00000000       1.64949495       0.00000000       0.00000000      68.29303741
2
Properties=species:S:1:pos:R:3:forces:R:3 energy=14.328980310905482 pbc="F F F"
Sm       0.00000000       0.00000000       0.00000000       0.00000000       0.00000000     -61.32913208
Sm       0.00000000       0.00000000       1.70909091       0.00000000       0.00000000      61.32913208
2
Properties=species:S:1:pos:R:3:forces:R:3 energy=10.92134260547066 pbc="F F F"
Sm       0.00000000       0.00000000       0.00000000       0.00000000       0.00000000     -52.89620209
Sm       0.00000000       0.00000000       1.76868687       0.00000000       0.00000000      52.89620209
2
Properties=species:S:1:pos:R:3:forces:R:3 energy=8.028345650800807 pbc="F F F"
Sm       0.00000000       0.00000000       0.00000000       0.00000000       0.00000000     -44.25375748
Sm       0.00000000       0.00000000       1.82828283       0.00000000       0.00000000      44.25375748
2
Properties=species:S:1:pos:R:3:forces:R:3 energy=5.6293231390618805 pbc="F F F"
Sm       0.00000000       0.00000000       0.00000000       0.00000000       0.00000000     -36.46123123
Sm       0.00000000       0.00000000       1.88787879       0.00000000       0.00000000      36.46123123
2
Properties=species:S:1:pos:R:3:forces:R:3 energy=3.6559744245879755 pbc="F F F"
Sm       0.00000000       0.00000000       0.00000000       0.00000000       0.00000000     -29.97440910
Sm       0.00000000       0.00000000       1.94747475       0.00000000       0.00000000      29.97440910
2
Properties=species:S:1:pos:R:3:forces:R:3 energy=2.035499476973536 pbc="F F F"
Sm       0.00000000       0.00000000       0.00000000       0.00000000       0.00000000     -24.54639816
Sm       0.00000000       0.00000000       2.00707071       0.00000000       0.00000000      24.54639816
2
Properties=species:S:1:pos:R:3:forces:R:3 energy=0.7173237433753639 pbc="F F F"
Sm       0.00000000       0.00000000       0.00000000       0.00000000       0.00000000     -19.77849579
Sm       0.00000000       0.00000000       2.06666667       0.00000000       0.00000000      19.77849579
2
Properties=species:S:1:pos:R:3:forces:R:3 energy=-0.3315645015606129 pbc="F F F"
Sm       0.00000000       0.00000000       0.00000000       0.00000000       0.00000000     -15.50324249
Sm       0.00000000       0.00000000       2.12626263       0.00000000       0.00000000      15.50324249
2
Properties=species:S:1:pos:R:3:forces:R:3 energy=-1.1411637858293386 pbc="F F F"
Sm       0.00000000       0.00000000       0.00000000       0.00000000       0.00000000     -11.76402855
Sm       0.00000000       0.00000000       2.18585859       0.00000000       0.00000000      11.76402855
2
Properties=species:S:1:pos:R:3:forces:R:3 energy=-1.7461883654351638 pbc="F F F"
Sm       0.00000000       0.00000000       0.00000000       0.00000000       0.00000000      -8.64925957
Sm       0.00000000       0.00000000       2.24545455       0.00000000       0.00000000       8.64925957
2
Properties=species:S:1:pos:R:3:forces:R:3 energy=-2.1852029400118416 pbc="F F F"
Sm       0.00000000       0.00000000       0.00000000       0.00000000       0.00000000      -6.19244242
Sm       0.00000000       0.00000000       2.30505051       0.00000000       0.00000000       6.19244242
2
Properties=species:S:1:pos:R:3:forces:R:3 energy=-2.4967209499065666 pbc="F F F"
Sm       0.00000000       0.00000000       0.00000000       0.00000000       0.00000000      -4.36018753
Sm       0.00000000       0.00000000       2.36464646       0.00000000       0.00000000       4.36018753
2
Properties=species:S:1:pos:R:3:forces:R:3 energy=-2.7156451991620405 pbc="F F F"
Sm       0.00000000       0.00000000       0.00000000       0.00000000       0.00000000      -3.06774592
Sm       0.00000000       0.00000000       2.42424242       0.00000000       0.00000000       3.06774592
2
Properties=species:S:1:pos:R:3:forces:R:3 energy=-2.870836097715333 pbc="F F F"
Sm       0.00000000       0.00000000       0.00000000       0.00000000       0.00000000      -2.20122576
Sm       0.00000000       0.00000000       2.48383838       0.00000000       0.00000000       2.20122576
2
Properties=species:S:1:pos:R:3:forces:R:3 energy=-2.984075270841716 pbc="F F F"
Sm       0.00000000       0.00000000       0.00000000       0.00000000       0.00000000      -1.64013207
Sm       0.00000000       0.00000000       2.54343434       0.00000000       0.00000000       1.64013207
2
Properties=species:S:1:pos:R:3:forces:R:3 energy=-3.070153117457832 pbc="F F F"
Sm       0.00000000       0.00000000       0.00000000       0.00000000       0.00000000      -1.27224147
Sm       0.00000000       0.00000000       2.60303030       0.00000000       0.00000000       1.27224147
2
Properties=species:S:1:pos:R:3:forces:R:3 energy=-3.1376521442028307 pbc="F F F"
Sm       0.00000000       0.00000000       0.00000000       0.00000000       0.00000000      -1.00268674
Sm       0.00000000       0.00000000       2.66262626       0.00000000       0.00000000       1.00268674
2
Properties=species:S:1:pos:R:3:forces:R:3 energy=-3.190225013399336 pbc="F F F"
Sm       0.00000000       0.00000000       0.00000000       0.00000000       0.00000000      -0.76237530
Sm       0.00000000       0.00000000       2.72222222       0.00000000       0.00000000       0.76237530
2
Properties=species:S:1:pos:R:3:forces:R:3 energy=-3.228330405371442 pbc="F F F"
Sm       0.00000000       0.00000000       0.00000000       0.00000000       0.00000000      -0.51350784
Sm       0.00000000       0.00000000       2.78181818       0.00000000       0.00000000       0.51350784
2
Properties=species:S:1:pos:R:3:forces:R:3 energy=-3.251065189197375 pbc="F F F"
Sm       0.00000000       0.00000000       0.00000000       0.00000000       0.00000000      -0.24692646
Sm       0.00000000       0.00000000       2.84141414       0.00000000       0.00000000       0.24692646
2
Properties=species:S:1:pos:R:3:forces:R:3 energy=-3.2575930418426653 pbc="F F F"
Sm       0.00000000       0.00000000       0.00000000       0.00000000       0.00000000       0.02790502
Sm       0.00000000       0.00000000       2.90101010       0.00000000       0.00000000      -0.02790502
2
Properties=species:S:1:pos:R:3:forces:R:3 energy=-3.2479100332243136 pbc="F F F"
Sm       0.00000000       0.00000000       0.00000000       0.00000000       0.00000000       0.29422915
Sm       0.00000000       0.00000000       2.96060606       0.00000000       0.00000000      -0.29422915
2
Properties=species:S:1:pos:R:3:forces:R:3 energy=-3.223022222709645 pbc="F F F"
Sm       0.00000000       0.00000000       0.00000000       0.00000000       0.00000000       0.53569448
Sm       0.00000000       0.00000000       3.02020202       0.00000000       0.00000000      -0.53569448
2
Properties=species:S:1:pos:R:3:forces:R:3 energy=-3.1848023212010186 pbc="F F F"
Sm       0.00000000       0.00000000       0.00000000       0.00000000       0.00000000       0.73987907
Sm       0.00000000       0.00000000       3.07979798       0.00000000       0.00000000      -0.73987907
2
Properties=species:S:1:pos:R:3:forces:R:3 energy=-3.1357293737254115 pbc="F F F"
Sm       0.00000000       0.00000000       0.00000000       0.00000000       0.00000000       0.89915162
Sm       0.00000000       0.00000000       3.13939394       0.00000000       0.00000000      -0.89915162
2
Properties=species:S:1:pos:R:3:forces:R:3 energy=-3.0785818283599964 pbc="F F F"
Sm       0.00000000       0.00000000       0.00000000       0.00000000       0.00000000       1.01076186
Sm       0.00000000       0.00000000       3.19898990       0.00000000       0.00000000      -1.01076186
2
Properties=species:S:1:pos:R:3:forces:R:3 energy=-3.0161657874012193 pbc="F F F"
Sm       0.00000000       0.00000000       0.00000000       0.00000000       0.00000000       1.07663703
Sm       0.00000000       0.00000000       3.25858586       0.00000000       0.00000000      -1.07663703
2
Properties=species:S:1:pos:R:3:forces:R:3 energy=-2.95104633730463 pbc="F F F"
Sm       0.00000000       0.00000000       0.00000000       0.00000000       0.00000000       1.10280049
Sm       0.00000000       0.00000000       3.31818182       0.00000000       0.00000000      -1.10280049
2
Properties=species:S:1:pos:R:3:forces:R:3 energy=-2.885329091574081 pbc="F F F"
Sm       0.00000000       0.00000000       0.00000000       0.00000000       0.00000000       1.09840870
Sm       0.00000000       0.00000000       3.37777778       0.00000000       0.00000000      -1.09840870
2
Properties=species:S:1:pos:R:3:forces:R:3 energy=-2.820513289239037 pbc="F F F"
Sm       0.00000000       0.00000000       0.00000000       0.00000000       0.00000000       1.07450914
Sm       0.00000000       0.00000000       3.43737374       0.00000000       0.00000000      -1.07450914
2
Properties=species:S:1:pos:R:3:forces:R:3 energy=-2.7574149987295296 pbc="F F F"
Sm       0.00000000       0.00000000       0.00000000       0.00000000       0.00000000       1.04260290
Sm       0.00000000       0.00000000       3.49696970       0.00000000       0.00000000      -1.04260290
2
Properties=species:S:1:pos:R:3:forces:R:3 energy=-2.696186604843197 pbc="F F F"
Sm       0.00000000       0.00000000       0.00000000       0.00000000       0.00000000       1.01341343
Sm       0.00000000       0.00000000       3.55656566       0.00000000       0.00000000      -1.01341343
2
Properties=species:S:1:pos:R:3:forces:R:3 energy=-2.636389853529512 pbc="F F F"
Sm       0.00000000       0.00000000       0.00000000       0.00000000       0.00000000       0.99592215
Sm       0.00000000       0.00000000       3.61616162       0.00000000       0.00000000      -0.99592215
2
Properties=species:S:1:pos:R:3:forces:R:3 energy=-2.577124384846495 pbc="F F F"
Sm       0.00000000       0.00000000       0.00000000       0.00000000       0.00000000       0.99632257
Sm       0.00000000       0.00000000       3.67575758       0.00000000       0.00000000      -0.99632257
2
Properties=species:S:1:pos:R:3:forces:R:3 energy=-2.5172367246842757 pbc="F F F"
Sm       0.00000000       0.00000000       0.00000000       0.00000000       0.00000000       1.01666319
Sm       0.00000000       0.00000000       3.73535354       0.00000000       0.00000000      -1.01666319
2
Properties=species:S:1:pos:R:3:forces:R:3 energy=-2.45560538503645 pbc="F F F"
Sm       0.00000000       0.00000000       0.00000000       0.00000000       0.00000000       1.05397522
Sm       0.00000000       0.00000000       3.79494949       0.00000000       0.00000000      -1.05397522
2
Properties=species:S:1:pos:R:3:forces:R:3 energy=-2.3914179800808215 pbc="F F F"
Sm       0.00000000       0.00000000       0.00000000       0.00000000       0.00000000       1.10096645
Sm       0.00000000       0.00000000       3.85454545       0.00000000       0.00000000      -1.10096645
2
Properties=species:S:1:pos:R:3:forces:R:3 energy=-2.3243702700149913 pbc="F F F"
Sm       0.00000000       0.00000000       0.00000000       0.00000000       0.00000000       1.14846563
Sm       0.00000000       0.00000000       3.91414141       0.00000000       0.00000000      -1.14846563
2
Properties=species:S:1:pos:R:3:forces:R:3 energy=-2.254682170779119 pbc="F F F"
Sm       0.00000000       0.00000000       0.00000000       0.00000000       0.00000000       1.18841267
Sm       0.00000000       0.00000000       3.97373737       0.00000000       0.00000000      -1.18841267
2
Properties=species:S:1:pos:R:3:forces:R:3 energy=-2.1829704535418757 pbc="F F F"
Sm       0.00000000       0.00000000       0.00000000       0.00000000       0.00000000       1.21592104
Sm       0.00000000       0.00000000       4.03333333       0.00000000       0.00000000      -1.21592104
2
Properties=species:S:1:pos:R:3:forces:R:3 energy=-2.1100309164822595 pbc="F F F"
Sm       0.00000000       0.00000000       0.00000000       0.00000000       0.00000000       1.22960091
Sm       0.00000000       0.00000000       4.09292929       0.00000000       0.00000000      -1.22960091
2
Properties=species:S:1:pos:R:3:forces:R:3 energy=-2.036664780386049 pbc="F F F"
Sm       0.00000000       0.00000000       0.00000000       0.00000000       0.00000000       1.23052263
Sm       0.00000000       0.00000000       4.15252525       0.00000000       0.00000000      -1.23052263
2
Properties=species:S:1:pos:R:3:forces:R:3 energy=-1.9635760799577708 pbc="F F F"
Sm       0.00000000       0.00000000       0.00000000       0.00000000       0.00000000       1.22069705
Sm       0.00000000       0.00000000       4.21212121       0.00000000       0.00000000      -1.22069705
2
Properties=species:S:1:pos:R:3:forces:R:3 energy=-1.8913462924169075 pbc="F F F"
Sm       0.00000000       0.00000000       0.00000000       0.00000000       0.00000000       1.20184302
Sm       0.00000000       0.00000000       4.27171717       0.00000000       0.00000000      -1.20184302
2
Properties=species:S:1:pos:R:3:forces:R:3 energy=-1.8204872537511718 pbc="F F F"
Sm       0.00000000       0.00000000       0.00000000       0.00000000       0.00000000       1.17483342
Sm       0.00000000       0.00000000       4.33131313       0.00000000       0.00000000      -1.17483342
2
Properties=species:S:1:pos:R:3:forces:R:3 energy=-1.7514755796909163 pbc="F F F"
Sm       0.00000000       0.00000000       0.00000000       0.00000000       0.00000000       1.13978982
Sm       0.00000000       0.00000000       4.39090909       0.00000000       0.00000000      -1.13978982
2
Properties=species:S:1:pos:R:3:forces:R:3 energy=-1.6847939247946067 pbc="F F F"
Sm       0.00000000       0.00000000       0.00000000       0.00000000       0.00000000       1.09665942
Sm       0.00000000       0.00000000       4.45050505       0.00000000       0.00000000      -1.09665942
2
Properties=species:S:1:pos:R:3:forces:R:3 energy=-1.620914432532459 pbc="F F F"
Sm       0.00000000       0.00000000       0.00000000       0.00000000       0.00000000       1.04595947
Sm       0.00000000       0.00000000       4.51010101       0.00000000       0.00000000      -1.04595947
2
Properties=species:S:1:pos:R:3:forces:R:3 energy=-1.5602407920681225 pbc="F F F"
Sm       0.00000000       0.00000000       0.00000000       0.00000000       0.00000000       0.98939764
Sm       0.00000000       0.00000000       4.56969697       0.00000000       0.00000000      -0.98939764
2
Properties=species:S:1:pos:R:3:forces:R:3 energy=-1.5030414402108765 pbc="F F F"
Sm       0.00000000       0.00000000       0.00000000       0.00000000       0.00000000       0.93002367
Sm       0.00000000       0.00000000       4.62929293       0.00000000       0.00000000      -0.93002367
2
Properties=species:S:1:pos:R:3:forces:R:3 energy=-1.4493672234745123 pbc="F F F"
Sm       0.00000000       0.00000000       0.00000000       0.00000000       0.00000000       0.87183142
Sm       0.00000000       0.00000000       4.68888889       0.00000000       0.00000000      -0.87183142
2
Properties=species:S:1:pos:R:3:forces:R:3 energy=-1.3990245783230895 pbc="F F F"
Sm       0.00000000       0.00000000       0.00000000       0.00000000       0.00000000       0.81868720
Sm       0.00000000       0.00000000       4.74848485       0.00000000       0.00000000      -0.81868720
2
Properties=species:S:1:pos:R:3:forces:R:3 energy=-1.3516366273477232 pbc="F F F"
Sm       0.00000000       0.00000000       0.00000000       0.00000000       0.00000000       0.77298921
Sm       0.00000000       0.00000000       4.80808081       0.00000000       0.00000000      -0.77298921
2
Properties=species:S:1:pos:R:3:forces:R:3 energy=-1.3067459526813712 pbc="F F F"
Sm       0.00000000       0.00000000       0.00000000       0.00000000       0.00000000       0.73445910
Sm       0.00000000       0.00000000       4.86767677       0.00000000       0.00000000      -0.73445910
2
Properties=species:S:1:pos:R:3:forces:R:3 energy=-1.2640163349626659 pbc="F F F"
Sm       0.00000000       0.00000000       0.00000000       0.00000000       0.00000000       0.69972456
Sm       0.00000000       0.00000000       4.92727273       0.00000000       0.00000000      -0.69972456
2
Properties=species:S:1:pos:R:3:forces:R:3 energy=-1.223375164087419 pbc="F F F"
Sm       0.00000000       0.00000000       0.00000000       0.00000000       0.00000000       0.66347635
Sm       0.00000000       0.00000000       4.98686869       0.00000000       0.00000000      -0.66347635
2
Properties=species:S:1:pos:R:3:forces:R:3 energy=-1.1850454138087496 pbc="F F F"
Sm       0.00000000       0.00000000       0.00000000       0.00000000       0.00000000       0.62214780
Sm       0.00000000       0.00000000       5.04646465       0.00000000       0.00000000      -0.62214780
2
Properties=species:S:1:pos:R:3:forces:R:3 energy=-1.1492446296094199 pbc="F F F"
Sm       0.00000000       0.00000000       0.00000000       0.00000000       0.00000000       0.58020073
Sm       0.00000000       0.00000000       5.10606061       0.00000000       0.00000000      -0.58020073
2
Properties=species:S:1:pos:R:3:forces:R:3 energy=-1.1155647853065636 pbc="F F F"
Sm       0.00000000       0.00000000       0.00000000       0.00000000       0.00000000       0.55454290
Sm       0.00000000       0.00000000       5.16565657       0.00000000       0.00000000      -0.55454290
2
Properties=species:S:1:pos:R:3:forces:R:3 energy=-1.082402332182949 pbc="F F F"
Sm       0.00000000       0.00000000       0.00000000       0.00000000       0.00000000       0.56544191
Sm       0.00000000       0.00000000       5.22525253       0.00000000       0.00000000      -0.56544191
2
Properties=species:S:1:pos:R:3:forces:R:3 energy=-1.047475114641096 pbc="F F F"
Sm       0.00000000       0.00000000       0.00000000       0.00000000       0.00000000       0.60994446
Sm       0.00000000       0.00000000       5.28484848       0.00000000       0.00000000      -0.60994446
2
Properties=species:S:1:pos:R:3:forces:R:3 energy=-1.009812943343283 pbc="F F F"
Sm       0.00000000       0.00000000       0.00000000       0.00000000       0.00000000       0.64874256
Sm       0.00000000       0.00000000       5.34444444       0.00000000       0.00000000      -0.64874256
2
Properties=species:S:1:pos:R:3:forces:R:3 energy=-0.971073484618347 pbc="F F F"
Sm       0.00000000       0.00000000       0.00000000       0.00000000       0.00000000       0.64293599
Sm       0.00000000       0.00000000       5.40404040       0.00000000       0.00000000      -0.64293599
2
Properties=species:S:1:pos:R:3:forces:R:3 energy=-0.933822233972267 pbc="F F F"
Sm       0.00000000       0.00000000       0.00000000       0.00000000       0.00000000       0.60647094
Sm       0.00000000       0.00000000       5.46363636       0.00000000       0.00000000      -0.60647094
2
Properties=species:S:1:pos:R:3:forces:R:3 energy=-0.8980387785792598 pbc="F F F"
Sm       0.00000000       0.00000000       0.00000000       0.00000000       0.00000000       0.60841405
Sm       0.00000000       0.00000000       5.52323232       0.00000000       0.00000000      -0.60841405
2
Properties=species:S:1:pos:R:3:forces:R:3 energy=-0.8591293146638117 pbc="F F F"
Sm       0.00000000       0.00000000       0.00000000       0.00000000       0.00000000       0.71747875
Sm       0.00000000       0.00000000       5.58282828       0.00000000       0.00000000      -0.71747875
2
Properties=species:S:1:pos:R:3:forces:R:3 energy=-0.8106097735919161 pbc="F F F"
Sm       0.00000000       0.00000000       0.00000000       0.00000000       0.00000000       0.91852933
Sm       0.00000000       0.00000000       5.64242424       0.00000000       0.00000000      -0.91852933
2
Properties=species:S:1:pos:R:3:forces:R:3 energy=-0.7503347177422572 pbc="F F F"
Sm       0.00000000       0.00000000       0.00000000       0.00000000       0.00000000       1.08188391
Sm       0.00000000       0.00000000       5.70202020       0.00000000       0.00000000      -1.08188391
2
Properties=species:S:1:pos:R:3:forces:R:3 energy=-0.6855951737183866 pbc="F F F"
Sm       0.00000000       0.00000000       0.00000000       0.00000000       0.00000000       1.05372286
Sm       0.00000000       0.00000000       5.76161616       0.00000000       0.00000000      -1.05372286
2
Properties=species:S:1:pos:R:3:forces:R:3 energy=-0.6293061266157141 pbc="F F F"
Sm       0.00000000       0.00000000       0.00000000       0.00000000       0.00000000       0.80217612
Sm       0.00000000       0.00000000       5.82121212       0.00000000       0.00000000      -0.80217612
2
Properties=species:S:1:pos:R:3:forces:R:3 energy=-0.5921853963549478 pbc="F F F"
Sm       0.00000000       0.00000000       0.00000000       0.00000000       0.00000000       0.44468197
Sm       0.00000000       0.00000000       5.88080808       0.00000000       0.00000000      -0.44468197
2
Properties=species:S:1:pos:R:3:forces:R:3 energy=-0.5748999712953822 pbc="F F F"
Sm       0.00000000       0.00000000       0.00000000       0.00000000       0.00000000       0.15239082
Sm       0.00000000       0.00000000       5.94040404       0.00000000       0.00000000      -0.15239082
2
Properties=species:S:1:pos:R:3:forces:R:3 energy=-0.5702848101435936 pbc="F F F"
Sm       0.00000000       0.00000000       0.00000000       0.00000000       0.00000000       0.04060670
Sm       0.00000000       0.00000000       6.00000000       0.00000000       0.00000000      -0.04060670
