2
Properties=species:S:1:pos:R:3:forces:R:3 energy=11644.702813495429 pbc="F F F"
Sm       0.00000000       0.00000000       0.00000000       0.00000000       0.00000000 -199582.76562500
Sm       0.00000000       0.00000000       0.18000000       0.00000000       0.00000000  199582.76562500
2
Properties=species:S:1:pos:R:3:forces:R:3 energy=4619.624688495429 pbc="F F F"
Sm       0.00000000       0.00000000       0.00000000       0.00000000       0.00000000  -67168.76562500
Sm       0.00000000       0.00000000       0.23878788       0.00000000       0.00000000   67168.76562500
2
Properties=species:S:1:pos:R:3:forces:R:3 energy=2070.4918759954294 pbc="F F F"
Sm       0.00000000       0.00000000       0.00000000       0.00000000       0.00000000  -26618.03320312
Sm       0.00000000       0.00000000       0.29757576       0.00000000       0.00000000   26618.03320312
2
Properties=species:S:1:pos:R:3:forces:R:3 energy=1011.9410947454293 pbc="F F F"
Sm       0.00000000       0.00000000       0.00000000       0.00000000       0.00000000  -11671.05664062
Sm       0.00000000       0.00000000       0.35636364       0.00000000       0.00000000   11671.05664062
2
Properties=species:S:1:pos:R:3:forces:R:3 energy=532.446893085273 pbc="F F F"
Sm       0.00000000       0.00000000       0.00000000       0.00000000       0.00000000   -5493.64355469
Sm       0.00000000       0.00000000       0.41515152       0.00000000       0.00000000    5493.64355469
2
Properties=species:S:1:pos:R:3:forces:R:3 energy=300.93132914577177 pbc="F F F"
Sm       0.00000000       0.00000000       0.00000000       0.00000000       0.00000000   -2733.97534180
Sm       0.00000000       0.00000000       0.47393939       0.00000000       0.00000000    2733.97534180
2
Properties=species:S:1:pos:R:3:forces:R:3 energy=183.2535947707718 pbc="F F F"
Sm       0.00000000       0.00000000       0.00000000       0.00000000       0.00000000   -1424.56872559
Sm       0.00000000       0.00000000       0.53272727       0.00000000       0.00000000    1424.56872559
2
Properties=species:S:1:pos:R:3:forces:R:3 energy=120.87205640500109 pbc="F F F"
Sm       0.00000000       0.00000000       0.00000000       0.00000000       0.00000000    -769.91381836
Sm       0.00000000       0.00000000       0.59151515       0.00000000       0.00000000     769.91381836
2
Properties=species:S:1:pos:R:3:forces:R:3 energy=86.74627062804953 pbc="F F F"
Sm       0.00000000       0.00000000       0.00000000       0.00000000       0.00000000    -426.35354614
Sm       0.00000000       0.00000000       0.65030303       0.00000000       0.00000000     426.35354614
2
Properties=species:S:1:pos:R:3:forces:R:3 energy=67.75238184909679 pbc="F F F"
Sm       0.00000000       0.00000000       0.00000000       0.00000000       0.00000000    -237.96372986
Sm       0.00000000       0.00000000       0.70909091       0.00000000       0.00000000     237.96372986
2
Properties=species:S:1:pos:R:3:forces:R:3 energy=57.186883623758895 pbc="F F F"
Sm       0.00000000       0.00000000       0.00000000       0.00000000       0.00000000    -131.41323853
Sm       0.00000000       0.00000000       0.76787879       0.00000000       0.00000000     131.41323853
2
Properties=species:S:1:pos:R:3:forces:R:3 energy=51.40273460589248 pbc="F F F"
Sm       0.00000000       0.00000000       0.00000000       0.00000000       0.00000000     -71.25791168
Sm       0.00000000       0.00000000       0.82666667       0.00000000       0.00000000      71.25791168
2
Properties=species:S:1:pos:R:3:forces:R:3 energy=48.26105699020165 pbc="F F F"
Sm       0.00000000       0.00000000       0.00000000       0.00000000       0.00000000     -39.25329590
Sm       0.00000000       0.00000000       0.88545455       0.00000000       0.00000000      39.25329590
2
Properties=species:S:1:pos:R:3:forces:R:3 energy=46.4608139546409 pbc="F F F"
Sm       0.00000000       0.00000000       0.00000000       0.00000000       0.00000000     -23.99806595
Sm       0.00000000       0.00000000       0.94424242       0.00000000       0.00000000      23.99806595
2
Properties=species:S:1:pos:R:3:forces:R:3 energy=45.27730075677858 pbc="F F F"
Sm       0.00000000       0.00000000       0.00000000       0.00000000       0.00000000     -17.14757919
Sm       0.00000000       0.00000000       1.00303030       0.00000000       0.00000000      17.14757919
2
Properties=species:S:1:pos:R:3:forces:R:3 energy=44.37352711619711 pbc="F F F"
Sm       0.00000000       0.00000000       0.00000000       0.00000000       0.00000000     -14.07188988
Sm       0.00000000       0.00000000       1.06181818       0.00000000       0.00000000      14.07188988
2
Properties=species:S:1:pos:R:3:forces:R:3 energy=43.56629222205743 pbc="F F F"
Sm       0.00000000       0.00000000       0.00000000       0.00000000       0.00000000     -13.92248058
Sm       0.00000000       0.00000000       1.12060606       0.00000000       0.00000000      13.92248058
2
Properties=species:S:1:pos:R:3:forces:R:3 energy=42.66676479569899 pbc="F F F"
Sm       0.00000000       0.00000000       0.00000000       0.00000000       0.00000000     -17.31642532
Sm       0.00000000       0.00000000       1.17939394       0.00000000       0.00000000      17.31642532
2
Properties=species:S:1:pos:R:3:forces:R:3 energy=41.45475677228038 pbc="F F F"
Sm       0.00000000       0.00000000       0.00000000       0.00000000       0.00000000     -24.53242874
Sm       0.00000000       0.00000000       1.23818182       0.00000000       0.00000000      24.53242874
2
Properties=species:S:1:pos:R:3:forces:R:3 energy=39.720299635592234 pbc="F F F"
Sm       0.00000000       0.00000000       0.00000000       0.00000000       0.00000000     -34.87021637
Sm       0.00000000       0.00000000       1.29696970       0.00000000       0.00000000      34.87021637
2
Properties=species:S:1:pos:R:3:forces:R:3 energy=37.32937550465504 pbc="F F F"
Sm       0.00000000       0.00000000       0.00000000       0.00000000       0.00000000     -46.50075150
Sm       0.00000000       0.00000000       1.35575758       0.00000000       0.00000000      46.50075150
2
Properties=species:S:1:pos:R:3:forces:R:3 energy=34.268167710699466 pbc="F F F"
Sm       0.00000000       0.00000000       0.00000000       0.00000000       0.00000000     -57.38038254
Sm       0.00000000       0.00000000       1.41454545       0.00000000       0.00000000      57.38038254
2
Properties=species:S:1:pos:R:3:forces:R:3 energy=30.62628735787746 pbc="F F F"
Sm       0.00000000       0.00000000       0.00000000       0.00000000       0.00000000     -66.05008698
Sm       0.00000000       0.00000000       1.47333333       0.00000000       0.00000000      66.05008698
2
Properties=species:S:1:pos:R:3:forces:R:3 energy=26.569475565041362 pbc="F F F"
Sm       0.00000000       0.00000000       0.00000000       0.00000000       0.00000000     -71.29182434
Sm       0.00000000       0.00000000       1.53212121       0.00000000       0.00000000      71.29182434
2
Properties=species:S:1:pos:R:3:forces:R:3 energy=22.332797944451713 pbc="F F F"
Sm       0.00000000       0.00000000       0.00000000       0.00000000       0.00000000     -72.04259491
Sm       0.00000000       0.00000000       1.59090909       0.00000000       0.00000000      72.04259491
2
Properties=species:S:1:pos:R:3:forces:R:3 energy=18.18877473881417 pbc="F F F"
Sm       0.00000000       0.00000000       0.00000000       0.00000000       0.00000000     -68.27387238
Sm       0.00000000       0.00000000       1.64969697       0.00000000       0.00000000      68.27387238
2
Properties=species:S:1:pos:R:3:forces:R:3 energy=14.366161122780193 pbc="F F F"
Sm       0.00000000       0.00000000       0.00000000       0.00000000       0.00000000     -61.40975571
Sm       0.00000000       0.00000000       1.70848485       0.00000000       0.00000000      61.40975571
2
Properties=species:S:1:pos:R:3:forces:R:3 energy=10.996293536591176 pbc="F F F"
Sm       0.00000000       0.00000000       0.00000000       0.00000000       0.00000000     -53.10337448
Sm       0.00000000       0.00000000       1.76727273       0.00000000       0.00000000      53.10337448
2
Properties=species:S:1:pos:R:3:forces:R:3 energy=8.127019981475629 pbc="F F F"
Sm       0.00000000       0.00000000       0.00000000       0.00000000       0.00000000     -44.56615067
Sm       0.00000000       0.00000000       1.82606061       0.00000000       0.00000000      44.56615067
2
Properties=species:S:1:pos:R:3:forces:R:3 energy=5.740376347761176 pbc="F F F"
Sm       0.00000000       0.00000000       0.00000000       0.00000000       0.00000000     -36.82629395
Sm       0.00000000       0.00000000       1.88484848       0.00000000       0.00000000      36.82629395
2
Properties=species:S:1:pos:R:3:forces:R:3 energy=3.7717527220576943 pbc="F F F"
Sm       0.00000000       0.00000000       0.00000000       0.00000000       0.00000000     -30.35554123
Sm       0.00000000       0.00000000       1.94363636       0.00000000       0.00000000      30.35554123
2
Properties=species:S:1:pos:R:3:forces:R:3 energy=2.1504802849669287 pbc="F F F"
Sm       0.00000000       0.00000000       0.00000000       0.00000000       0.00000000     -24.94181061
Sm       0.00000000       0.00000000       2.00242424       0.00000000       0.00000000      24.94181061
2
Properties=species:S:1:pos:R:3:forces:R:3 energy=0.826335742736833 pbc="F F F"
Sm       0.00000000       0.00000000       0.00000000       0.00000000       0.00000000     -20.19384384
Sm       0.00000000       0.00000000       2.06121212       0.00000000       0.00000000      20.19384384
2
Properties=species:S:1:pos:R:3:forces:R:3 energy=-0.23314088692101326 pbc="F F F"
Sm       0.00000000       0.00000000       0.00000000       0.00000000       0.00000000     -15.92899799
Sm       0.00000000       0.00000000       2.12000000       0.00000000       0.00000000      15.92899799
2
Properties=species:S:1:pos:R:3:forces:R:3 energy=-1.056531946524523 pbc="F F F"
Sm       0.00000000       0.00000000       0.00000000       0.00000000       0.00000000     -12.17640781
Sm       0.00000000       0.00000000       2.17878788       0.00000000       0.00000000      12.17640781
2
Properties=species:S:1:pos:R:3:forces:R:3 energy=-1.676580251321067 pbc="F F F"
Sm       0.00000000       0.00000000       0.00000000       0.00000000       0.00000000      -9.02329540
Sm       0.00000000       0.00000000       2.23757576       0.00000000       0.00000000       9.02329540
2
Properties=species:S:1:pos:R:3:forces:R:3 energy=-2.130038825977994 pbc="F F F"
Sm       0.00000000       0.00000000       0.00000000       0.00000000       0.00000000      -6.51022911
Sm       0.00000000       0.00000000       2.29636364       0.00000000       0.00000000       6.51022911
2
Properties=species:S:1:pos:R:3:forces:R:3 energy=-2.4541304698783972 pbc="F F F"
Sm       0.00000000       0.00000000       0.00000000       0.00000000       0.00000000      -4.61329317
Sm       0.00000000       0.00000000       2.35515152       0.00000000       0.00000000       4.61329317
2
Properties=species:S:1:pos:R:3:forces:R:3 energy=-2.6830742152514047 pbc="F F F"
Sm       0.00000000       0.00000000       0.00000000       0.00000000       0.00000000      -3.25734782
Sm       0.00000000       0.00000000       2.41393939       0.00000000       0.00000000       3.25734782
2
Properties=species:S:1:pos:R:3:forces:R:3 energy=-2.8456395101784655 pbc="F F F"
Sm       0.00000000       0.00000000       0.00000000       0.00000000       0.00000000      -2.33605194
Sm       0.00000000       0.00000000       2.47272727       0.00000000       0.00000000       2.33605194
2
Properties=species:S:1:pos:R:3:forces:R:3 energy=-2.9639762732831216 pbc="F F F"
Sm       0.00000000       0.00000000       0.00000000       0.00000000       0.00000000      -1.73350060
Sm       0.00000000       0.00000000       2.53151515       0.00000000       0.00000000       1.73350060
2
Properties=species:S:1:pos:R:3:forces:R:3 energy=-3.0535376587826675 pbc="F F F"
Sm       0.00000000       0.00000000       0.00000000       0.00000000       0.00000000      -1.33966112
Sm       0.00000000       0.00000000       2.59030303       0.00000000       0.00000000       1.33966112
2
Properties=species:S:1:pos:R:3:forces:R:3 energy=-3.123698851735322 pbc="F F F"
Sm       0.00000000       0.00000000       0.00000000       0.00000000       0.00000000      -1.05933809
Sm       0.00000000       0.00000000       2.64909091       0.00000000       0.00000000       1.05933809
2
Properties=species:S:1:pos:R:3:forces:R:3 energy=-3.1788758570621654 pbc="F F F"
Sm       0.00000000       0.00000000       0.00000000       0.00000000       0.00000000      -0.82009238
Sm       0.00000000       0.00000000       2.70787879       0.00000000       0.00000000       0.82009238
2
Properties=species:S:1:pos:R:3:forces:R:3 energy=-3.2200568827514755 pbc="F F F"
Sm       0.00000000       0.00000000       0.00000000       0.00000000       0.00000000      -0.57850963
Sm       0.00000000       0.00000000       2.76666667       0.00000000       0.00000000       0.57850963
2
Properties=species:S:1:pos:R:3:forces:R:3 energy=-3.246543475063946 pbc="F F F"
Sm       0.00000000       0.00000000       0.00000000       0.00000000       0.00000000      -0.31973210
Sm       0.00000000       0.00000000       2.82545455       0.00000000       0.00000000       0.31973210
2
Properties=species:S:1:pos:R:3:forces:R:3 energy=-3.2574159531614413 pbc="F F F"
Sm       0.00000000       0.00000000       0.00000000       0.00000000       0.00000000      -0.04932142
Sm       0.00000000       0.00000000       2.88424242       0.00000000       0.00000000       0.04932142
2
Properties=species:S:1:pos:R:3:forces:R:3 energy=-3.252410536052319 pbc="F F F"
Sm       0.00000000       0.00000000       0.00000000       0.00000000       0.00000000       0.21759355
Sm       0.00000000       0.00000000       2.94303030       0.00000000       0.00000000      -0.21759355
2
Properties=species:S:1:pos:R:3:forces:R:3 energy=-3.2322223495987936 pbc="F F F"
Sm       0.00000000       0.00000000       0.00000000       0.00000000       0.00000000       0.46469712
Sm       0.00000000       0.00000000       3.00181818       0.00000000       0.00000000      -0.46469712
2
Properties=species:S:1:pos:R:3:forces:R:3 energy=-3.1984240117398675 pbc="F F F"
Sm       0.00000000       0.00000000       0.00000000       0.00000000       0.00000000       0.67876095
Sm       0.00000000       0.00000000       3.06060606       0.00000000       0.00000000      -0.67876095
2
Properties=species:S:1:pos:R:3:forces:R:3 energy=-3.153239748726612 pbc="F F F"
Sm       0.00000000       0.00000000       0.00000000       0.00000000       0.00000000       0.85097653
Sm       0.00000000       0.00000000       3.11939394       0.00000000       0.00000000      -0.85097653
2
Properties=species:S:1:pos:R:3:forces:R:3 energy=-3.0992743662187867 pbc="F F F"
Sm       0.00000000       0.00000000       0.00000000       0.00000000       0.00000000       0.97718239
Sm       0.00000000       0.00000000       3.17818182       0.00000000       0.00000000      -0.97718239
2
Properties=species:S:1:pos:R:3:forces:R:3 energy=-3.039244711601137 pbc="F F F"
Sm       0.00000000       0.00000000       0.00000000       0.00000000       0.00000000       1.05772805
Sm       0.00000000       0.00000000       3.23696970       0.00000000       0.00000000      -1.05772805
2
Properties=species:S:1:pos:R:3:forces:R:3 energy=-2.9757202388913697 pbc="F F F"
Sm       0.00000000       0.00000000       0.00000000       0.00000000       0.00000000       1.09709024
Sm       0.00000000       0.00000000       3.29575758       0.00000000       0.00000000      -1.09709024
2
Properties=species:S:1:pos:R:3:forces:R:3 energy=-2.91090810490136 pbc="F F F"
Sm       0.00000000       0.00000000       0.00000000       0.00000000       0.00000000       1.10307646
Sm       0.00000000       0.00000000       3.35454545       0.00000000       0.00000000      -1.10307646
2
Properties=species:S:1:pos:R:3:forces:R:3 energy=-2.846482887686522 pbc="F F F"
Sm       0.00000000       0.00000000       0.00000000       0.00000000       0.00000000       1.08575523
Sm       0.00000000       0.00000000       3.41333333       0.00000000       0.00000000      -1.08575523
2
Properties=species:S:1:pos:R:3:forces:R:3 energy=-2.78349066858518 pbc="F F F"
Sm       0.00000000       0.00000000       0.00000000       0.00000000       0.00000000       1.05615985
Sm       0.00000000       0.00000000       3.47212121       0.00000000       0.00000000      -1.05615985
2
Properties=species:S:1:pos:R:3:forces:R:3 energy=-2.7223338597926237 pbc="F F F"
Sm       0.00000000       0.00000000       0.00000000       0.00000000       0.00000000       1.02502024
Sm       0.00000000       0.00000000       3.53090909       0.00000000       0.00000000      -1.02502024
2
Properties=species:S:1:pos:R:3:forces:R:3 energy=-2.6628165799188674 pbc="F F F"
Sm       0.00000000       0.00000000       0.00000000       0.00000000       0.00000000       1.00176859
Sm       0.00000000       0.00000000       3.58969697       0.00000000       0.00000000      -1.00176859
2
Properties=species:S:1:pos:R:3:forces:R:3 energy=-2.604250085685769 pbc="F F F"
Sm       0.00000000       0.00000000       0.00000000       0.00000000       0.00000000       0.99367571
Sm       0.00000000       0.00000000       3.64848485       0.00000000       0.00000000      -0.99367571
2
Properties=species:S:1:pos:R:3:forces:R:3 energy=-2.545607919065581 pbc="F F F"
Sm       0.00000000       0.00000000       0.00000000       0.00000000       0.00000000       1.00466502
Sm       0.00000000       0.00000000       3.70727273       0.00000000       0.00000000      -1.00466502
2
Properties=species:S:1:pos:R:3:forces:R:3 energy=-2.4857598846060682 pbc="F F F"
Sm       0.00000000       0.00000000       0.00000000       0.00000000       0.00000000       1.03415012
Sm       0.00000000       0.00000000       3.76606061       0.00000000       0.00000000      -1.03415012
2
Properties=species:S:1:pos:R:3:forces:R:3 energy=-2.423754324356879 pbc="F F F"
Sm       0.00000000       0.00000000       0.00000000       0.00000000       0.00000000       1.07690644
Sm       0.00000000       0.00000000       3.82484848       0.00000000       0.00000000      -1.07690644
2
Properties=species:S:1:pos:R:3:forces:R:3 energy=-2.3590443390872426 pbc="F F F"
Sm       0.00000000       0.00000000       0.00000000       0.00000000       0.00000000       1.12464666
Sm       0.00000000       0.00000000       3.88363636       0.00000000       0.00000000      -1.12464666
2
Properties=species:S:1:pos:R:3:forces:R:3 energy=-2.2915954291067444 pbc="F F F"
Sm       0.00000000       0.00000000       0.00000000       0.00000000       0.00000000       1.16875124
Sm       0.00000000       0.00000000       3.94242424       0.00000000       0.00000000      -1.16875124
2
Properties=species:S:1:pos:R:3:forces:R:3 energy=-2.2218274951941606 pbc="F F F"
Sm       0.00000000       0.00000000       0.00000000       0.00000000       0.00000000       1.20280075
Sm       0.00000000       0.00000000       4.00121212       0.00000000       0.00000000      -1.20280075
2
Properties=species:S:1:pos:R:3:forces:R:3 energy=-2.150435121673968 pbc="F F F"
Sm       0.00000000       0.00000000       0.00000000       0.00000000       0.00000000       1.22373033
Sm       0.00000000       0.00000000       4.06000000       0.00000000       0.00000000      -1.22373033
2
Properties=species:S:1:pos:R:3:forces:R:3 energy=-2.078206203234094 pbc="F F F"
Sm       0.00000000       0.00000000       0.00000000       0.00000000       0.00000000       1.23145628
Sm       0.00000000       0.00000000       4.11878788       0.00000000       0.00000000      -1.23145628
2
Properties=species:S:1:pos:R:3:forces:R:3 energy=-2.00587320974642 pbc="F F F"
Sm       0.00000000       0.00000000       0.00000000       0.00000000       0.00000000       1.22758651
Sm       0.00000000       0.00000000       4.17757576       0.00000000       0.00000000      -1.22758651
2
Properties=species:S:1:pos:R:3:forces:R:3 energy=-1.9340600696087977 pbc="F F F"
Sm       0.00000000       0.00000000       0.00000000       0.00000000       0.00000000       1.21404541
Sm       0.00000000       0.00000000       4.23636364       0.00000000       0.00000000      -1.21404541
2
Properties=species:S:1:pos:R:3:forces:R:3 energy=-1.8632918562077723 pbc="F F F"
Sm       0.00000000       0.00000000       0.00000000       0.00000000       0.00000000       1.19217408
Sm       0.00000000       0.00000000       4.29515152       0.00000000       0.00000000      -1.19217408
2
Properties=species:S:1:pos:R:3:forces:R:3 energy=-1.7940427757453277 pbc="F F F"
Sm       0.00000000       0.00000000       0.00000000       0.00000000       0.00000000       1.16248178
Sm       0.00000000       0.00000000       4.35393939       0.00000000       0.00000000      -1.16248178
2
Properties=species:S:1:pos:R:3:forces:R:3 energy=-1.7267676995118681 pbc="F F F"
Sm       0.00000000       0.00000000       0.00000000       0.00000000       0.00000000       1.12493169
Sm       0.00000000       0.00000000       4.41272727       0.00000000       0.00000000      -1.12493169
2
Properties=species:S:1:pos:R:3:forces:R:3 energy=-1.6619308754860183 pbc="F F F"
Sm       0.00000000       0.00000000       0.00000000       0.00000000       0.00000000       1.07959294
Sm       0.00000000       0.00000000       4.47151515       0.00000000       0.00000000      -1.07959294
2
Properties=species:S:1:pos:R:3:forces:R:3 energy=-1.5999697215567736 pbc="F F F"
Sm       0.00000000       0.00000000       0.00000000       0.00000000       0.00000000       1.02731764
Sm       0.00000000       0.00000000       4.53030303       0.00000000       0.00000000      -1.02731764
2
Properties=species:S:1:pos:R:3:forces:R:3 energy=-1.5412391726242611 pbc="F F F"
Sm       0.00000000       0.00000000       0.00000000       0.00000000       0.00000000       0.97019881
Sm       0.00000000       0.00000000       4.58909091       0.00000000       0.00000000      -0.97019881
2
Properties=species:S:1:pos:R:3:forces:R:3 energy=-1.4859297227972785 pbc="F F F"
Sm       0.00000000       0.00000000       0.00000000       0.00000000       0.00000000       0.91155785
Sm       0.00000000       0.00000000       4.64787879       0.00000000       0.00000000      -0.91155785
2
Properties=species:S:1:pos:R:3:forces:R:3 energy=-1.4340144584548689 pbc="F F F"
Sm       0.00000000       0.00000000       0.00000000       0.00000000       0.00000000       0.85530216
Sm       0.00000000       0.00000000       4.70666667       0.00000000       0.00000000      -0.85530216
2
Properties=species:S:1:pos:R:3:forces:R:3 energy=-1.3852511608319737 pbc="F F F"
Sm       0.00000000       0.00000000       0.00000000       0.00000000       0.00000000       0.80487204
Sm       0.00000000       0.00000000       4.76545455       0.00000000       0.00000000      -0.80487204
2
Properties=species:S:1:pos:R:3:forces:R:3 energy=-1.3392320289644648 pbc="F F F"
Sm       0.00000000       0.00000000       0.00000000       0.00000000       0.00000000       0.76192194
Sm       0.00000000       0.00000000       4.82424242       0.00000000       0.00000000      -0.76192194
2
Properties=species:S:1:pos:R:3:forces:R:3 energy=-1.295542674371135 pbc="F F F"
Sm       0.00000000       0.00000000       0.00000000       0.00000000       0.00000000       0.72534519
Sm       0.00000000       0.00000000       4.88303030       0.00000000       0.00000000      -0.72534519
2
Properties=species:S:1:pos:R:3:forces:R:3 energy=-1.253900672758426 pbc="F F F"
Sm       0.00000000       0.00000000       0.00000000       0.00000000       0.00000000       0.69122738
Sm       0.00000000       0.00000000       4.94181818       0.00000000       0.00000000      -0.69122738
2
Properties=species:S:1:pos:R:3:forces:R:3 energy=-1.2143217607769952 pbc="F F F"
Sm       0.00000000       0.00000000       0.00000000       0.00000000       0.00000000       0.65442187
Sm       0.00000000       0.00000000       5.00060606       0.00000000       0.00000000      -0.65442187
2
Properties=species:S:1:pos:R:3:forces:R:3 energy=-1.1770574095358084 pbc="F F F"
Sm       0.00000000       0.00000000       0.00000000       0.00000000       0.00000000       0.61270714
Sm       0.00000000       0.00000000       5.05939394       0.00000000       0.00000000      -0.61270714
2
Properties=species:S:1:pos:R:3:forces:R:3 energy=-1.142252553389003 pbc="F F F"
Sm       0.00000000       0.00000000       0.00000000       0.00000000       0.00000000       0.57291830
Sm       0.00000000       0.00000000       5.11818182       0.00000000       0.00000000      -0.57291830
2
Properties=species:S:1:pos:R:3:forces:R:3 energy=-1.1093023441130678 pbc="F F F"
Sm       0.00000000       0.00000000       0.00000000       0.00000000       0.00000000       0.55337703
Sm       0.00000000       0.00000000       5.17696970       0.00000000       0.00000000      -0.55337703
2
Properties=species:S:1:pos:R:3:forces:R:3 energy=-1.076434512664239 pbc="F F F"
Sm       0.00000000       0.00000000       0.00000000       0.00000000       0.00000000       0.57154202
Sm       0.00000000       0.00000000       5.23575758       0.00000000       0.00000000      -0.57154202
2
Properties=species:S:1:pos:R:3:forces:R:3 energy=-1.0415252591469644 pbc="F F F"
Sm       0.00000000       0.00000000       0.00000000       0.00000000       0.00000000       0.61799461
Sm       0.00000000       0.00000000       5.29454545       0.00000000       0.00000000      -0.61799461
2
Properties=species:S:1:pos:R:3:forces:R:3 energy=-1.0040381475589366 pbc="F F F"
Sm       0.00000000       0.00000000       0.00000000       0.00000000       0.00000000       0.65113086
Sm       0.00000000       0.00000000       5.35333333       0.00000000       0.00000000      -0.65113086
2
Properties=species:S:1:pos:R:3:forces:R:3 energy=-0.9658974255427458 pbc="F F F"
Sm       0.00000000       0.00000000       0.00000000       0.00000000       0.00000000       0.63866943
Sm       0.00000000       0.00000000       5.41212121       0.00000000       0.00000000      -0.63866943
2
Properties=species:S:1:pos:R:3:forces:R:3 energy=-0.9294379784816773 pbc="F F F"
Sm       0.00000000       0.00000000       0.00000000       0.00000000       0.00000000       0.60291505
Sm       0.00000000       0.00000000       5.47090909       0.00000000       0.00000000      -0.60291505
2
Properties=species:S:1:pos:R:3:forces:R:3 energy=-0.8940788970609992 pbc="F F F"
Sm       0.00000000       0.00000000       0.00000000       0.00000000       0.00000000       0.61438411
Sm       0.00000000       0.00000000       5.52969697       0.00000000       0.00000000      -0.61438411
2
Properties=species:S:1:pos:R:3:forces:R:3 energy=-0.855022839394568 pbc="F F F"
Sm       0.00000000       0.00000000       0.00000000       0.00000000       0.00000000       0.73385572
Sm       0.00000000       0.00000000       5.58848485       0.00000000       0.00000000      -0.73385572
2
Properties=species:S:1:pos:R:3:forces:R:3 energy=-0.8061010810972007 pbc="F F F"
Sm       0.00000000       0.00000000       0.00000000       0.00000000       0.00000000       0.93559706
Sm       0.00000000       0.00000000       5.64727273       0.00000000       0.00000000      -0.93559706
2
Properties=species:S:1:pos:R:3:forces:R:3 energy=-0.7460203296431464 pbc="F F F"
Sm       0.00000000       0.00000000       0.00000000       0.00000000       0.00000000       1.08684409
Sm       0.00000000       0.00000000       5.70606061       0.00000000       0.00000000      -1.08684409
2
Properties=species:S:1:pos:R:3:forces:R:3 energy=-0.6820614157378435 pbc="F F F"
Sm       0.00000000       0.00000000       0.00000000       0.00000000       0.00000000       1.04595339
Sm       0.00000000       0.00000000       5.76484848       0.00000000       0.00000000      -1.04595339
2
Properties=species:S:1:pos:R:3:forces:R:3 energy=-0.6273536731146988 pbc="F F F"
Sm       0.00000000       0.00000000       0.00000000       0.00000000       0.00000000       0.78879124
Sm       0.00000000       0.00000000       5.82363636       0.00000000       0.00000000      -0.78879124
2
Properties=species:S:1:pos:R:3:forces:R:3 energy=-0.5913931675245354 pbc="F F F"
Sm       0.00000000       0.00000000       0.00000000       0.00000000       0.00000000       0.43532854
Sm       0.00000000       0.00000000       5.88242424       0.00000000       0.00000000      -0.43532854
2
Properties=species:S:1:pos:R:3:forces:R:3 energy=-0.5748029246893226 pbc="F F F"
Sm       0.00000000       0.00000000       0.00000000       0.00000000       0.00000000       0.14896399
Sm       0.00000000       0.00000000       5.94121212       0.00000000       0.00000000      -0.14896399
2
Properties=species:S:1:pos:R:3:forces:R:3 energy=-0.5702848101435936 pbc="F F F"
Sm       0.00000000       0.00000000       0.00000000       0.00000000       0.00000000       0.04060670
Sm       0.00000000       0.00000000       6.00000000       0.00000000       0.00000000      -0.04060670
