2
Properties=species:S:1:pos:R:3:forces:R:3 energy=8661.486152288444 pbc="F F F"
Sn       0.00000000       0.00000000       0.00000000       0.00000000       0.00000000 -144431.64062500
Sn       0.00000000       0.00000000       0.18000000       0.00000000       0.00000000  144431.64062500
2
Properties=species:S:1:pos:R:3:forces:R:3 energy=3532.106269475944 pbc="F F F"
Sn       0.00000000       0.00000000       0.00000000       0.00000000       0.00000000  -49666.98046875
Sn       0.00000000       0.00000000       0.23878788       0.00000000       0.00000000   49666.98046875
2
Properties=species:S:1:pos:R:3:forces:R:3 energy=1629.4990917479047 pbc="F F F"
Sn       0.00000000       0.00000000       0.00000000       0.00000000       0.00000000  -20124.36523438
Sn       0.00000000       0.00000000       0.29757576       0.00000000       0.00000000   20124.36523438
2
Properties=species:S:1:pos:R:3:forces:R:3 energy=821.3264232908733 pbc="F F F"
Sn       0.00000000       0.00000000       0.00000000       0.00000000       0.00000000   -9023.90722656
Sn       0.00000000       0.00000000       0.35636364       0.00000000       0.00000000    9023.90722656
2
Properties=species:S:1:pos:R:3:forces:R:3 energy=447.200202594084 pbc="F F F"
Sn       0.00000000       0.00000000       0.00000000       0.00000000       0.00000000   -4333.36572266
Sn       0.00000000       0.00000000       0.41515152       0.00000000       0.00000000    4333.36572266
2
Properties=species:S:1:pos:R:3:forces:R:3 energy=263.3265758946031 pbc="F F F"
Sn       0.00000000       0.00000000       0.00000000       0.00000000       0.00000000   -2186.84130859
Sn       0.00000000       0.00000000       0.47393939       0.00000000       0.00000000    2186.84130859
2
Properties=species:S:1:pos:R:3:forces:R:3 energy=168.95821349002 pbc="F F F"
Sn       0.00000000       0.00000000       0.00000000       0.00000000       0.00000000   -1143.31140137
Sn       0.00000000       0.00000000       0.53272727       0.00000000       0.00000000    1143.31140137
2
Properties=species:S:1:pos:R:3:forces:R:3 energy=119.05159731392855 pbc="F F F"
Sn       0.00000000       0.00000000       0.00000000       0.00000000       0.00000000    -612.46893311
Sn       0.00000000       0.00000000       0.59151515       0.00000000       0.00000000     612.46893311
2
Properties=species:S:1:pos:R:3:forces:R:3 energy=92.03362251743373 pbc="F F F"
Sn       0.00000000       0.00000000       0.00000000       0.00000000       0.00000000    -336.28277588
Sn       0.00000000       0.00000000       0.65030303       0.00000000       0.00000000     336.28277588
2
Properties=species:S:1:pos:R:3:forces:R:3 energy=77.02025591324964 pbc="F F F"
Sn       0.00000000       0.00000000       0.00000000       0.00000000       0.00000000    -189.20726013
Sn       0.00000000       0.00000000       0.70909091       0.00000000       0.00000000     189.20726013
2
Properties=species:S:1:pos:R:3:forces:R:3 energy=68.52160645229803 pbc="F F F"
Sn       0.00000000       0.00000000       0.00000000       0.00000000       0.00000000    -108.03999329
Sn       0.00000000       0.00000000       0.76787879       0.00000000       0.00000000     108.03999329
2
Properties=species:S:1:pos:R:3:forces:R:3 energy=63.533561919436934 pbc="F F F"
Sn       0.00000000       0.00000000       0.00000000       0.00000000       0.00000000     -67.25360107
Sn       0.00000000       0.00000000       0.82666667       0.00000000       0.00000000      67.25360107
2
Properties=species:S:1:pos:R:3:forces:R:3 energy=60.05134632952891 pbc="F F F"
Sn       0.00000000       0.00000000       0.00000000       0.00000000       0.00000000     -55.23124695
Sn       0.00000000       0.00000000       0.88545455       0.00000000       0.00000000      55.23124695
2
Properties=species:S:1:pos:R:3:forces:R:3 energy=56.665604557013616 pbc="F F F"
Sn       0.00000000       0.00000000       0.00000000       0.00000000       0.00000000     -62.24582672
Sn       0.00000000       0.00000000       0.94424242       0.00000000       0.00000000      62.24582672
2
Properties=species:S:1:pos:R:3:forces:R:3 energy=52.56517940067111 pbc="F F F"
Sn       0.00000000       0.00000000       0.00000000       0.00000000       0.00000000     -77.87010956
Sn       0.00000000       0.00000000       1.00303030       0.00000000       0.00000000      77.87010956
2
Properties=species:S:1:pos:R:3:forces:R:3 energy=47.52476726128422 pbc="F F F"
Sn       0.00000000       0.00000000       0.00000000       0.00000000       0.00000000     -92.76152802
Sn       0.00000000       0.00000000       1.06181818       0.00000000       0.00000000      92.76152802
2
Properties=species:S:1:pos:R:3:forces:R:3 energy=41.834193632159035 pbc="F F F"
Sn       0.00000000       0.00000000       0.00000000       0.00000000       0.00000000     -98.81264496
Sn       0.00000000       0.00000000       1.12060606       0.00000000       0.00000000      98.81264496
2
Properties=species:S:1:pos:R:3:forces:R:3 energy=36.16875535693145 pbc="F F F"
Sn       0.00000000       0.00000000       0.00000000       0.00000000       0.00000000     -91.80957794
Sn       0.00000000       0.00000000       1.17939394       0.00000000       0.00000000      91.80957794
2
Properties=species:S:1:pos:R:3:forces:R:3 energy=31.21695386649359 pbc="F F F"
Sn       0.00000000       0.00000000       0.00000000       0.00000000       0.00000000     -75.99337006
Sn       0.00000000       0.00000000       1.23818182       0.00000000       0.00000000      75.99337006
2
Properties=species:S:1:pos:R:3:forces:R:3 energy=27.21213238026978 pbc="F F F"
Sn       0.00000000       0.00000000       0.00000000       0.00000000       0.00000000     -61.04167557
Sn       0.00000000       0.00000000       1.29696970       0.00000000       0.00000000      61.04167557
2
Properties=species:S:1:pos:R:3:forces:R:3 energy=23.928132857540476 pbc="F F F"
Sn       0.00000000       0.00000000       0.00000000       0.00000000       0.00000000     -51.58548737
Sn       0.00000000       0.00000000       1.35575758       0.00000000       0.00000000      51.58548737
2
Properties=species:S:1:pos:R:3:forces:R:3 energy=21.062030305651824 pbc="F F F"
Sn       0.00000000       0.00000000       0.00000000       0.00000000       0.00000000     -46.45460129
Sn       0.00000000       0.00000000       1.41454545       0.00000000       0.00000000      46.45460129
2
Properties=species:S:1:pos:R:3:forces:R:3 energy=18.42145159773462 pbc="F F F"
Sn       0.00000000       0.00000000       0.00000000       0.00000000       0.00000000     -43.63949203
Sn       0.00000000       0.00000000       1.47333333       0.00000000       0.00000000      43.63949203
2
Properties=species:S:1:pos:R:3:forces:R:3 energy=15.909980412455663 pbc="F F F"
Sn       0.00000000       0.00000000       0.00000000       0.00000000       0.00000000     -41.92010498
Sn       0.00000000       0.00000000       1.53212121       0.00000000       0.00000000      41.92010498
2
Properties=species:S:1:pos:R:3:forces:R:3 energy=13.483826122623535 pbc="F F F"
Sn       0.00000000       0.00000000       0.00000000       0.00000000       0.00000000     -40.65955353
Sn       0.00000000       0.00000000       1.59090909       0.00000000       0.00000000      40.65955353
2
Properties=species:S:1:pos:R:3:forces:R:3 energy=11.128211756949609 pbc="F F F"
Sn       0.00000000       0.00000000       0.00000000       0.00000000       0.00000000     -39.45598221
Sn       0.00000000       0.00000000       1.64969697       0.00000000       0.00000000      39.45598221
2
Properties=species:S:1:pos:R:3:forces:R:3 energy=8.85275822269227 pbc="F F F"
Sn       0.00000000       0.00000000       0.00000000       0.00000000       0.00000000     -37.84205246
Sn       0.00000000       0.00000000       1.70848485       0.00000000       0.00000000      37.84205246
2
Properties=species:S:1:pos:R:3:forces:R:3 energy=6.696378117089792 pbc="F F F"
Sn       0.00000000       0.00000000       0.00000000       0.00000000       0.00000000     -35.35286331
Sn       0.00000000       0.00000000       1.76727273       0.00000000       0.00000000      35.35286331
2
Properties=species:S:1:pos:R:3:forces:R:3 energy=4.714597934290113 pbc="F F F"
Sn       0.00000000       0.00000000       0.00000000       0.00000000       0.00000000     -31.93579674
Sn       0.00000000       0.00000000       1.82606061       0.00000000       0.00000000      31.93579674
2
Properties=species:S:1:pos:R:3:forces:R:3 energy=2.9526813163267662 pbc="F F F"
Sn       0.00000000       0.00000000       0.00000000       0.00000000       0.00000000     -27.94998550
Sn       0.00000000       0.00000000       1.88484848       0.00000000       0.00000000      27.94998550
2
Properties=species:S:1:pos:R:3:forces:R:3 energy=1.4307296325470373 pbc="F F F"
Sn       0.00000000       0.00000000       0.00000000       0.00000000       0.00000000     -23.83833313
Sn       0.00000000       0.00000000       1.94363636       0.00000000       0.00000000      23.83833313
2
Properties=species:S:1:pos:R:3:forces:R:3 energy=0.1460105536854327 pbc="F F F"
Sn       0.00000000       0.00000000       0.00000000       0.00000000       0.00000000     -19.91776276
Sn       0.00000000       0.00000000       2.00242424       0.00000000       0.00000000      19.91776276
2
Properties=species:S:1:pos:R:3:forces:R:3 energy=-0.918018899391714 pbc="F F F"
Sn       0.00000000       0.00000000       0.00000000       0.00000000       0.00000000     -16.34588623
Sn       0.00000000       0.00000000       2.06121212       0.00000000       0.00000000      16.34588623
2
Properties=species:S:1:pos:R:3:forces:R:3 energy=-1.7837695193350498 pbc="F F F"
Sn       0.00000000       0.00000000       0.00000000       0.00000000       0.00000000     -13.17646885
Sn       0.00000000       0.00000000       2.12000000       0.00000000       0.00000000      13.17646885
2
Properties=species:S:1:pos:R:3:forces:R:3 energy=-2.4753789265497885 pbc="F F F"
Sn       0.00000000       0.00000000       0.00000000       0.00000000       0.00000000     -10.42136955
Sn       0.00000000       0.00000000       2.17878788       0.00000000       0.00000000      10.42136955
2
Properties=species:S:1:pos:R:3:forces:R:3 energy=-3.017116611090012 pbc="F F F"
Sn       0.00000000       0.00000000       0.00000000       0.00000000       0.00000000      -8.07609844
Sn       0.00000000       0.00000000       2.23757576       0.00000000       0.00000000       8.07609844
2
Properties=species:S:1:pos:R:3:forces:R:3 energy=-3.43255240209865 pbc="F F F"
Sn       0.00000000       0.00000000       0.00000000       0.00000000       0.00000000      -6.11923885
Sn       0.00000000       0.00000000       2.29636364       0.00000000       0.00000000       6.11923885
2
Properties=species:S:1:pos:R:3:forces:R:3 energy=-3.7434425281046098 pbc="F F F"
Sn       0.00000000       0.00000000       0.00000000       0.00000000       0.00000000      -4.51176548
Sn       0.00000000       0.00000000       2.35515152       0.00000000       0.00000000       4.51176548
2
Properties=species:S:1:pos:R:3:forces:R:3 energy=-3.9689075731047376 pbc="F F F"
Sn       0.00000000       0.00000000       0.00000000       0.00000000       0.00000000      -3.20434332
Sn       0.00000000       0.00000000       2.41393939       0.00000000       0.00000000       3.20434332
2
Properties=species:S:1:pos:R:3:forces:R:3 energy=-4.125112633704186 pbc="F F F"
Sn       0.00000000       0.00000000       0.00000000       0.00000000       0.00000000      -2.14797306
Sn       0.00000000       0.00000000       2.47272727       0.00000000       0.00000000       2.14797306
2
Properties=species:S:1:pos:R:3:forces:R:3 energy=-4.2255493547922764 pbc="F F F"
Sn       0.00000000       0.00000000       0.00000000       0.00000000       0.00000000      -1.30083406
Sn       0.00000000       0.00000000       2.53151515       0.00000000       0.00000000       1.30083406
2
Properties=species:S:1:pos:R:3:forces:R:3 energy=-4.281508793612338 pbc="F F F"
Sn       0.00000000       0.00000000       0.00000000       0.00000000       0.00000000      -0.62996602
Sn       0.00000000       0.00000000       2.59030303       0.00000000       0.00000000       0.62996602
2
Properties=species:S:1:pos:R:3:forces:R:3 energy=-4.30255898084719 pbc="F F F"
Sn       0.00000000       0.00000000       0.00000000       0.00000000       0.00000000      -0.10929400
Sn       0.00000000       0.00000000       2.64909091       0.00000000       0.00000000       0.10929400
2
Properties=species:S:1:pos:R:3:forces:R:3 energy=-4.296850109071681 pbc="F F F"
Sn       0.00000000       0.00000000       0.00000000       0.00000000       0.00000000       0.28428450
Sn       0.00000000       0.00000000       2.70787879       0.00000000       0.00000000      -0.28428450
2
Properties=species:S:1:pos:R:3:forces:R:3 energy=-4.271154233781887 pbc="F F F"
Sn       0.00000000       0.00000000       0.00000000       0.00000000       0.00000000       0.57486069
Sn       0.00000000       0.00000000       2.76666667       0.00000000       0.00000000      -0.57486069
2
Properties=species:S:1:pos:R:3:forces:R:3 energy=-4.230757821811748 pbc="F F F"
Sn       0.00000000       0.00000000       0.00000000       0.00000000       0.00000000       0.78902191
Sn       0.00000000       0.00000000       2.82545455       0.00000000       0.00000000      -0.78902191
2
Properties=species:S:1:pos:R:3:forces:R:3 energy=-4.179361610698188 pbc="F F F"
Sn       0.00000000       0.00000000       0.00000000       0.00000000       0.00000000       0.95316505
Sn       0.00000000       0.00000000       2.88424242       0.00000000       0.00000000      -0.95316505
2
Properties=species:S:1:pos:R:3:forces:R:3 energy=-4.1192529748185684 pbc="F F F"
Sn       0.00000000       0.00000000       0.00000000       0.00000000       0.00000000       1.08815169
Sn       0.00000000       0.00000000       2.94303030       0.00000000       0.00000000      -1.08815169
2
Properties=species:S:1:pos:R:3:forces:R:3 energy=-4.0517618574219645 pbc="F F F"
Sn       0.00000000       0.00000000       0.00000000       0.00000000       0.00000000       1.20544267
Sn       0.00000000       0.00000000       3.00181818       0.00000000       0.00000000      -1.20544267
2
Properties=species:S:1:pos:R:3:forces:R:3 energy=-3.9778205673100313 pbc="F F F"
Sn       0.00000000       0.00000000       0.00000000       0.00000000       0.00000000       1.30735135
Sn       0.00000000       0.00000000       3.06060606       0.00000000       0.00000000      -1.30735135
2
Properties=species:S:1:pos:R:3:forces:R:3 energy=-3.8984122108749015 pbc="F F F"
Sn       0.00000000       0.00000000       0.00000000       0.00000000       0.00000000       1.39071226
Sn       0.00000000       0.00000000       3.11939394       0.00000000       0.00000000      -1.39071226
2
Properties=species:S:1:pos:R:3:forces:R:3 energy=-3.814749462708439 pbc="F F F"
Sn       0.00000000       0.00000000       0.00000000       0.00000000       0.00000000       1.45156741
Sn       0.00000000       0.00000000       3.17818182       0.00000000       0.00000000      -1.45156741
2
Properties=species:S:1:pos:R:3:forces:R:3 energy=-3.7282106787013216 pbc="F F F"
Sn       0.00000000       0.00000000       0.00000000       0.00000000       0.00000000       1.48871875
Sn       0.00000000       0.00000000       3.23696970       0.00000000       0.00000000      -1.48871875
2
Properties=species:S:1:pos:R:3:forces:R:3 energy=-3.6401190771720664 pbc="F F F"
Sn       0.00000000       0.00000000       0.00000000       0.00000000       0.00000000       1.50520039
Sn       0.00000000       0.00000000       3.29575758       0.00000000       0.00000000      -1.50520039
2
Properties=species:S:1:pos:R:3:forces:R:3 energy=-3.551520053186223 pbc="F F F"
Sn       0.00000000       0.00000000       0.00000000       0.00000000       0.00000000       1.50712228
Sn       0.00000000       0.00000000       3.35454545       0.00000000       0.00000000      -1.50712228
2
Properties=species:S:1:pos:R:3:forces:R:3 energy=-3.4630883262775116 pbc="F F F"
Sn       0.00000000       0.00000000       0.00000000       0.00000000       0.00000000       1.50022435
Sn       0.00000000       0.00000000       3.41333333       0.00000000       0.00000000      -1.50022435
2
Properties=species:S:1:pos:R:3:forces:R:3 energy=-3.3752518825068134 pbc="F F F"
Sn       0.00000000       0.00000000       0.00000000       0.00000000       0.00000000       1.48700702
Sn       0.00000000       0.00000000       3.47212121       0.00000000       0.00000000      -1.48700702
2
Properties=species:S:1:pos:R:3:forces:R:3 energy=-3.2883839552526255 pbc="F F F"
Sn       0.00000000       0.00000000       0.00000000       0.00000000       0.00000000       1.46712601
Sn       0.00000000       0.00000000       3.53090909       0.00000000       0.00000000      -1.46712601
2
Properties=species:S:1:pos:R:3:forces:R:3 energy=-3.20290777070773 pbc="F F F"
Sn       0.00000000       0.00000000       0.00000000       0.00000000       0.00000000       1.43938661
Sn       0.00000000       0.00000000       3.58969697       0.00000000       0.00000000      -1.43938661
2
Properties=species:S:1:pos:R:3:forces:R:3 energy=-3.1193146681964348 pbc="F F F"
Sn       0.00000000       0.00000000       0.00000000       0.00000000       0.00000000       1.40305459
Sn       0.00000000       0.00000000       3.64848485       0.00000000       0.00000000      -1.40305459
2
Properties=species:S:1:pos:R:3:forces:R:3 energy=-3.038108015358257 pbc="F F F"
Sn       0.00000000       0.00000000       0.00000000       0.00000000       0.00000000       1.35832810
Sn       0.00000000       0.00000000       3.70727273       0.00000000       0.00000000      -1.35832810
2
Properties=species:S:1:pos:R:3:forces:R:3 energy=-2.9597494655072825 pbc="F F F"
Sn       0.00000000       0.00000000       0.00000000       0.00000000       0.00000000       1.30639029
Sn       0.00000000       0.00000000       3.76606061       0.00000000       0.00000000      -1.30639029
2
Properties=species:S:1:pos:R:3:forces:R:3 energy=-2.8846120771990322 pbc="F F F"
Sn       0.00000000       0.00000000       0.00000000       0.00000000       0.00000000       1.24917150
Sn       0.00000000       0.00000000       3.82484848       0.00000000       0.00000000      -1.24917150
2
Properties=species:S:1:pos:R:3:forces:R:3 energy=-2.8129371559883594 pbc="F F F"
Sn       0.00000000       0.00000000       0.00000000       0.00000000       0.00000000       1.18888426
Sn       0.00000000       0.00000000       3.88363636       0.00000000       0.00000000      -1.18888426
2
Properties=species:S:1:pos:R:3:forces:R:3 energy=-2.7448467689254286 pbc="F F F"
Sn       0.00000000       0.00000000       0.00000000       0.00000000       0.00000000       1.12760961
Sn       0.00000000       0.00000000       3.94242424       0.00000000       0.00000000      -1.12760961
2
Properties=species:S:1:pos:R:3:forces:R:3 energy=-2.6803463786797592 pbc="F F F"
Sn       0.00000000       0.00000000       0.00000000       0.00000000       0.00000000       1.06694758
Sn       0.00000000       0.00000000       4.00121212       0.00000000       0.00000000      -1.06694758
2
Properties=species:S:1:pos:R:3:forces:R:3 energy=-2.6193674869639767 pbc="F F F"
Sn       0.00000000       0.00000000       0.00000000       0.00000000       0.00000000       1.00791728
Sn       0.00000000       0.00000000       4.06000000       0.00000000       0.00000000      -1.00791728
2
Properties=species:S:1:pos:R:3:forces:R:3 energy=-2.5617982256439142 pbc="F F F"
Sn       0.00000000       0.00000000       0.00000000       0.00000000       0.00000000       0.95101255
Sn       0.00000000       0.00000000       4.11878788       0.00000000       0.00000000      -0.95101255
2
Properties=species:S:1:pos:R:3:forces:R:3 energy=-2.507506872150994 pbc="F F F"
Sn       0.00000000       0.00000000       0.00000000       0.00000000       0.00000000       0.89634782
Sn       0.00000000       0.00000000       4.17757576       0.00000000       0.00000000      -0.89634782
2
Properties=species:S:1:pos:R:3:forces:R:3 energy=-2.456365159818081 pbc="F F F"
Sn       0.00000000       0.00000000       0.00000000       0.00000000       0.00000000       0.84387177
Sn       0.00000000       0.00000000       4.23636364       0.00000000       0.00000000      -0.84387177
2
Properties=species:S:1:pos:R:3:forces:R:3 energy=-2.408245482548884 pbc="F F F"
Sn       0.00000000       0.00000000       0.00000000       0.00000000       0.00000000       0.79353023
Sn       0.00000000       0.00000000       4.29515152       0.00000000       0.00000000      -0.79353023
2
Properties=species:S:1:pos:R:3:forces:R:3 energy=-2.363022344336363 pbc="F F F"
Sn       0.00000000       0.00000000       0.00000000       0.00000000       0.00000000       0.74541837
Sn       0.00000000       0.00000000       4.35393939       0.00000000       0.00000000      -0.74541837
2
Properties=species:S:1:pos:R:3:forces:R:3 energy=-2.320554547561381 pbc="F F F"
Sn       0.00000000       0.00000000       0.00000000       0.00000000       0.00000000       0.69981462
Sn       0.00000000       0.00000000       4.41272727       0.00000000       0.00000000      -0.69981462
2
Properties=species:S:1:pos:R:3:forces:R:3 energy=-2.280681829790023 pbc="F F F"
Sn       0.00000000       0.00000000       0.00000000       0.00000000       0.00000000       0.65721154
Sn       0.00000000       0.00000000       4.47151515       0.00000000       0.00000000      -0.65721154
2
Properties=species:S:1:pos:R:3:forces:R:3 energy=-2.2432100976608 pbc="F F F"
Sn       0.00000000       0.00000000       0.00000000       0.00000000       0.00000000       0.61824995
Sn       0.00000000       0.00000000       4.53030303       0.00000000       0.00000000      -0.61824995
2
Properties=species:S:1:pos:R:3:forces:R:3 energy=-2.2079058102087994 pbc="F F F"
Sn       0.00000000       0.00000000       0.00000000       0.00000000       0.00000000       0.58362353
Sn       0.00000000       0.00000000       4.58909091       0.00000000       0.00000000      -0.58362353
2
Properties=species:S:1:pos:R:3:forces:R:3 energy=-2.174493642197229 pbc="F F F"
Sn       0.00000000       0.00000000       0.00000000       0.00000000       0.00000000       0.55396247
Sn       0.00000000       0.00000000       4.64787879       0.00000000       0.00000000      -0.55396247
2
Properties=species:S:1:pos:R:3:forces:R:3 energy=-2.142667957551528 pbc="F F F"
Sn       0.00000000       0.00000000       0.00000000       0.00000000       0.00000000       0.52963948
Sn       0.00000000       0.00000000       4.70666667       0.00000000       0.00000000      -0.52963948
2
Properties=species:S:1:pos:R:3:forces:R:3 energy=-2.112117617562883 pbc="F F F"
Sn       0.00000000       0.00000000       0.00000000       0.00000000       0.00000000       0.51056910
Sn       0.00000000       0.00000000       4.76545455       0.00000000       0.00000000      -0.51056910
2
Properties=species:S:1:pos:R:3:forces:R:3 energy=-2.082548316206933 pbc="F F F"
Sn       0.00000000       0.00000000       0.00000000       0.00000000       0.00000000       0.49596071
Sn       0.00000000       0.00000000       4.82424242       0.00000000       0.00000000      -0.49596071
2
Properties=species:S:1:pos:R:3:forces:R:3 energy=-2.0537513627358877 pbc="F F F"
Sn       0.00000000       0.00000000       0.00000000       0.00000000       0.00000000       0.48410344
Sn       0.00000000       0.00000000       4.88303030       0.00000000       0.00000000      -0.48410344
2
Properties=species:S:1:pos:R:3:forces:R:3 energy=-2.0256285140566668 pbc="F F F"
Sn       0.00000000       0.00000000       0.00000000       0.00000000       0.00000000       0.47233543
Sn       0.00000000       0.00000000       4.94181818       0.00000000       0.00000000      -0.47233543
2
Properties=species:S:1:pos:R:3:forces:R:3 energy=-1.9982757661901667 pbc="F F F"
Sn       0.00000000       0.00000000       0.00000000       0.00000000       0.00000000       0.45746392
Sn       0.00000000       0.00000000       5.00060606       0.00000000       0.00000000      -0.45746392
2
Properties=species:S:1:pos:R:3:forces:R:3 energy=-1.9719487328921366 pbc="F F F"
Sn       0.00000000       0.00000000       0.00000000       0.00000000       0.00000000       0.43717611
Sn       0.00000000       0.00000000       5.05939394       0.00000000       0.00000000      -0.43717611
2
Properties=species:S:1:pos:R:3:forces:R:3 energy=-1.9469606551863463 pbc="F F F"
Sn       0.00000000       0.00000000       0.00000000       0.00000000       0.00000000       0.41270944
Sn       0.00000000       0.00000000       5.11818182       0.00000000       0.00000000      -0.41270944
2
Properties=species:S:1:pos:R:3:forces:R:3 energy=-1.923368501130445 pbc="F F F"
Sn       0.00000000       0.00000000       0.00000000       0.00000000       0.00000000       0.39132562
Sn       0.00000000       0.00000000       5.17696970       0.00000000       0.00000000      -0.39132562
2
Properties=species:S:1:pos:R:3:forces:R:3 energy=-1.9006799794765554 pbc="F F F"
Sn       0.00000000       0.00000000       0.00000000       0.00000000       0.00000000       0.38348669
Sn       0.00000000       0.00000000       5.23575758       0.00000000       0.00000000      -0.38348669
2
Properties=species:S:1:pos:R:3:forces:R:3 energy=-1.877969713291698 pbc="F F F"
Sn       0.00000000       0.00000000       0.00000000       0.00000000       0.00000000       0.39079073
Sn       0.00000000       0.00000000       5.29454545       0.00000000       0.00000000      -0.39079073
2
Properties=species:S:1:pos:R:3:forces:R:3 energy=-1.8547481006164808 pbc="F F F"
Sn       0.00000000       0.00000000       0.00000000       0.00000000       0.00000000       0.39709699
Sn       0.00000000       0.00000000       5.35333333       0.00000000       0.00000000      -0.39709699
2
Properties=species:S:1:pos:R:3:forces:R:3 energy=-1.831693002077428 pbc="F F F"
Sn       0.00000000       0.00000000       0.00000000       0.00000000       0.00000000       0.38326335
Sn       0.00000000       0.00000000       5.41212121       0.00000000       0.00000000      -0.38326335
2
Properties=species:S:1:pos:R:3:forces:R:3 energy=-1.8100627749360776 pbc="F F F"
Sn       0.00000000       0.00000000       0.00000000       0.00000000       0.00000000       0.35094273
Sn       0.00000000       0.00000000       5.47090909       0.00000000       0.00000000      -0.35094273
2
Properties=species:S:1:pos:R:3:forces:R:3 energy=-1.7903487867167849 pbc="F F F"
Sn       0.00000000       0.00000000       0.00000000       0.00000000       0.00000000       0.32260871
Sn       0.00000000       0.00000000       5.52969697       0.00000000       0.00000000      -0.32260871
2
Properties=species:S:1:pos:R:3:forces:R:3 energy=-1.7716158650536833 pbc="F F F"
Sn       0.00000000       0.00000000       0.00000000       0.00000000       0.00000000       0.31964409
Sn       0.00000000       0.00000000       5.58848485       0.00000000       0.00000000      -0.31964409
2
Properties=species:S:1:pos:R:3:forces:R:3 energy=-1.752362634301194 pbc="F F F"
Sn       0.00000000       0.00000000       0.00000000       0.00000000       0.00000000       0.33671793
Sn       0.00000000       0.00000000       5.64727273       0.00000000       0.00000000      -0.33671793
2
Properties=species:S:1:pos:R:3:forces:R:3 energy=-1.7323358187324975 pbc="F F F"
Sn       0.00000000       0.00000000       0.00000000       0.00000000       0.00000000       0.33831450
Sn       0.00000000       0.00000000       5.70606061       0.00000000       0.00000000      -0.33831450
2
Properties=species:S:1:pos:R:3:forces:R:3 energy=-1.7134858638023498 pbc="F F F"
Sn       0.00000000       0.00000000       0.00000000       0.00000000       0.00000000       0.29313755
Sn       0.00000000       0.00000000       5.76484848       0.00000000       0.00000000      -0.29313755
2
Properties=species:S:1:pos:R:3:forces:R:3 energy=-1.6986858319261464 pbc="F F F"
Sn       0.00000000       0.00000000       0.00000000       0.00000000       0.00000000       0.20596242
Sn       0.00000000       0.00000000       5.82363636       0.00000000       0.00000000      -0.20596242
2
Properties=species:S:1:pos:R:3:forces:R:3 energy=-1.6894932441088277 pbc="F F F"
Sn       0.00000000       0.00000000       0.00000000       0.00000000       0.00000000       0.10948760
Sn       0.00000000       0.00000000       5.88242424       0.00000000       0.00000000      -0.10948760
2
Properties=species:S:1:pos:R:3:forces:R:3 energy=-1.685340139145536 pbc="F F F"
Sn       0.00000000       0.00000000       0.00000000       0.00000000       0.00000000       0.03741626
Sn       0.00000000       0.00000000       5.94121212       0.00000000       0.00000000      -0.03741626
2
Properties=species:S:1:pos:R:3:forces:R:3 energy=-1.6841906114719334 pbc="F F F"
Sn       0.00000000       0.00000000       0.00000000       0.00000000       0.00000000       0.01052490
Sn       0.00000000       0.00000000       6.00000000       0.00000000       0.00000000      -0.01052490
