2
Properties=species:S:1:pos:R:3:forces:R:3 energy=42247.351386663446 pbc="F F F"
Sn       0.00000000       0.00000000       0.00000000       0.00000000       0.00000000 -1018907.75000000
Sn       0.00000000       0.00000000       0.10000000       0.00000000       0.00000000 1018907.75000000
2
Properties=species:S:1:pos:R:3:forces:R:3 energy=12328.750800725944 pbc="F F F"
Sn       0.00000000       0.00000000       0.00000000       0.00000000       0.00000000 -221622.31250000
Sn       0.00000000       0.00000000       0.15959596       0.00000000       0.00000000  221622.31250000
2
Properties=species:S:1:pos:R:3:forces:R:3 energy=4685.288398382194 pbc="F F F"
Sn       0.00000000       0.00000000       0.00000000       0.00000000       0.00000000  -69307.63281250
Sn       0.00000000       0.00000000       0.21919192       0.00000000       0.00000000   69307.63281250
2
Properties=species:S:1:pos:R:3:forces:R:3 energy=2064.411933538444 pbc="F F F"
Sn       0.00000000       0.00000000       0.00000000       0.00000000       0.00000000  -26507.28710938
Sn       0.00000000       0.00000000       0.27878788       0.00000000       0.00000000   26507.28710938
2
Properties=species:S:1:pos:R:3:forces:R:3 energy=1004.3032299314983 pbc="F F F"
Sn       0.00000000       0.00000000       0.00000000       0.00000000       0.00000000  -11436.11035156
Sn       0.00000000       0.00000000       0.33838384       0.00000000       0.00000000   11436.11035156
2
Properties=species:S:1:pos:R:3:forces:R:3 energy=529.9043651917402 pbc="F F F"
Sn       0.00000000       0.00000000       0.00000000       0.00000000       0.00000000   -5337.61523438
Sn       0.00000000       0.00000000       0.39797980       0.00000000       0.00000000    5337.61523438
2
Properties=species:S:1:pos:R:3:forces:R:3 energy=302.65076412385713 pbc="F F F"
Sn       0.00000000       0.00000000       0.00000000       0.00000000       0.00000000   -2634.47900391
Sn       0.00000000       0.00000000       0.45757576       0.00000000       0.00000000    2634.47900391
2
Properties=species:S:1:pos:R:3:forces:R:3 energy=188.33051267485249 pbc="F F F"
Sn       0.00000000       0.00000000       0.00000000       0.00000000       0.00000000   -1353.68725586
Sn       0.00000000       0.00000000       0.51717172       0.00000000       0.00000000    1353.68725586
2
Properties=species:S:1:pos:R:3:forces:R:3 energy=128.81812256664412 pbc="F F F"
Sn       0.00000000       0.00000000       0.00000000       0.00000000       0.00000000    -714.81958008
Sn       0.00000000       0.00000000       0.57676768       0.00000000       0.00000000     714.81958008
2
Properties=species:S:1:pos:R:3:forces:R:3 energy=97.06339239905556 pbc="F F F"
Sn       0.00000000       0.00000000       0.00000000       0.00000000       0.00000000    -386.65069580
Sn       0.00000000       0.00000000       0.63636364       0.00000000       0.00000000     386.65069580
2
Properties=species:S:1:pos:R:3:forces:R:3 energy=79.6696852060283 pbc="F F F"
Sn       0.00000000       0.00000000       0.00000000       0.00000000       0.00000000    -214.87707520
Sn       0.00000000       0.00000000       0.69595960       0.00000000       0.00000000     214.87707520
2
Properties=species:S:1:pos:R:3:forces:R:3 energy=69.93219754610809 pbc="F F F"
Sn       0.00000000       0.00000000       0.00000000       0.00000000       0.00000000    -121.19289398
Sn       0.00000000       0.00000000       0.75555556       0.00000000       0.00000000     121.19289398
2
Properties=species:S:1:pos:R:3:forces:R:3 energy=64.33817307797429 pbc="F F F"
Sn       0.00000000       0.00000000       0.00000000       0.00000000       0.00000000     -72.68104553
Sn       0.00000000       0.00000000       0.81515152       0.00000000       0.00000000      72.68104553
2
Properties=species:S:1:pos:R:3:forces:R:3 energy=60.64462706157662 pbc="F F F"
Sn       0.00000000       0.00000000       0.00000000       0.00000000       0.00000000     -55.70053482
Sn       0.00000000       0.00000000       0.87474747       0.00000000       0.00000000      55.70053482
2
Properties=species:S:1:pos:R:3:forces:R:3 energy=57.27137458890205 pbc="F F F"
Sn       0.00000000       0.00000000       0.00000000       0.00000000       0.00000000     -60.18549347
Sn       0.00000000       0.00000000       0.93434343       0.00000000       0.00000000      60.18549347
2
Properties=species:S:1:pos:R:3:forces:R:3 energy=53.26138063009934 pbc="F F F"
Sn       0.00000000       0.00000000       0.00000000       0.00000000       0.00000000     -75.28030396
Sn       0.00000000       0.00000000       0.99393939       0.00000000       0.00000000      75.28030396
2
Properties=species:S:1:pos:R:3:forces:R:3 energy=48.286031938764545 pbc="F F F"
Sn       0.00000000       0.00000000       0.00000000       0.00000000       0.00000000     -91.03161621
Sn       0.00000000       0.00000000       1.05353535       0.00000000       0.00000000      91.03161621
2
Properties=species:S:1:pos:R:3:forces:R:3 energy=42.57270743297242 pbc="F F F"
Sn       0.00000000       0.00000000       0.00000000       0.00000000       0.00000000     -98.74736786
Sn       0.00000000       0.00000000       1.11313131       0.00000000       0.00000000      98.74736786
2
Properties=species:S:1:pos:R:3:forces:R:3 energy=36.78559554525006 pbc="F F F"
Sn       0.00000000       0.00000000       0.00000000       0.00000000       0.00000000     -93.21011353
Sn       0.00000000       0.00000000       1.17272727       0.00000000       0.00000000      93.21011353
2
Properties=species:S:1:pos:R:3:forces:R:3 energy=31.66712228287558 pbc="F F F"
Sn       0.00000000       0.00000000       0.00000000       0.00000000       0.00000000     -77.67949677
Sn       0.00000000       0.00000000       1.23232323       0.00000000       0.00000000      77.67949677
2
Properties=species:S:1:pos:R:3:forces:R:3 energy=27.523140624562657 pbc="F F F"
Sn       0.00000000       0.00000000       0.00000000       0.00000000       0.00000000     -62.12028885
Sn       0.00000000       0.00000000       1.29191919       0.00000000       0.00000000      62.12028885
2
Properties=species:S:1:pos:R:3:forces:R:3 energy=24.14803848589659 pbc="F F F"
Sn       0.00000000       0.00000000       0.00000000       0.00000000       0.00000000     -52.09598923
Sn       0.00000000       0.00000000       1.35151515       0.00000000       0.00000000      52.09598923
2
Properties=species:S:1:pos:R:3:forces:R:3 energy=21.221946004808714 pbc="F F F"
Sn       0.00000000       0.00000000       0.00000000       0.00000000       0.00000000     -46.67462540
Sn       0.00000000       0.00000000       1.41111111       0.00000000       0.00000000      46.67462540
2
Properties=species:S:1:pos:R:3:forces:R:3 energy=18.536189846678184 pbc="F F F"
Sn       0.00000000       0.00000000       0.00000000       0.00000000       0.00000000     -43.73554230
Sn       0.00000000       0.00000000       1.47070707       0.00000000       0.00000000      43.73554230
2
Properties=species:S:1:pos:R:3:forces:R:3 energy=15.986230308183746 pbc="F F F"
Sn       0.00000000       0.00000000       0.00000000       0.00000000       0.00000000     -41.96395874
Sn       0.00000000       0.00000000       1.53030303       0.00000000       0.00000000      41.96395874
2
Properties=species:S:1:pos:R:3:forces:R:3 energy=13.524922689563189 pbc="F F F"
Sn       0.00000000       0.00000000       0.00000000       0.00000000       0.00000000     -40.67963409
Sn       0.00000000       0.00000000       1.58989899       0.00000000       0.00000000      40.67963409
2
Properties=species:S:1:pos:R:3:forces:R:3 energy=11.136177773171973 pbc="F F F"
Sn       0.00000000       0.00000000       0.00000000       0.00000000       0.00000000     -39.46055222
Sn       0.00000000       0.00000000       1.64949495       0.00000000       0.00000000      39.46055222
2
Properties=species:S:1:pos:R:3:forces:R:3 energy=8.829836803049442 pbc="F F F"
Sn       0.00000000       0.00000000       0.00000000       0.00000000       0.00000000     -37.82140732
Sn       0.00000000       0.00000000       1.70909091       0.00000000       0.00000000      37.82140732
2
Properties=species:S:1:pos:R:3:forces:R:3 energy=6.646419235293638 pbc="F F F"
Sn       0.00000000       0.00000000       0.00000000       0.00000000       0.00000000     -35.28068542
Sn       0.00000000       0.00000000       1.76868687       0.00000000       0.00000000      35.28068542
2
Properties=species:S:1:pos:R:3:forces:R:3 energy=4.643800063084381 pbc="F F F"
Sn       0.00000000       0.00000000       0.00000000       0.00000000       0.00000000     -31.79255295
Sn       0.00000000       0.00000000       1.82828283       0.00000000       0.00000000      31.79255295
2
Properties=species:S:1:pos:R:3:forces:R:3 energy=2.8683077976963123 pbc="F F F"
Sn       0.00000000       0.00000000       0.00000000       0.00000000       0.00000000     -27.73771858
Sn       0.00000000       0.00000000       1.88787879       0.00000000       0.00000000      27.73771858
2
Properties=species:S:1:pos:R:3:forces:R:3 energy=1.3397368940733287 pbc="F F F"
Sn       0.00000000       0.00000000       0.00000000       0.00000000       0.00000000     -23.57405281
Sn       0.00000000       0.00000000       1.94747475       0.00000000       0.00000000      23.57405281
2
Properties=species:S:1:pos:R:3:forces:R:3 energy=0.05415185309396617 pbc="F F F"
Sn       0.00000000       0.00000000       0.00000000       0.00000000       0.00000000     -19.62159538
Sn       0.00000000       0.00000000       2.00707071       0.00000000       0.00000000      19.62159538
2
Properties=species:S:1:pos:R:3:forces:R:3 energy=-1.0063216489762794 pbc="F F F"
Sn       0.00000000       0.00000000       0.00000000       0.00000000       0.00000000     -16.03455162
Sn       0.00000000       0.00000000       2.06666667       0.00000000       0.00000000      16.03455162
2
Properties=species:S:1:pos:R:3:forces:R:3 energy=-1.8653104898450081 pbc="F F F"
Sn       0.00000000       0.00000000       0.00000000       0.00000000       0.00000000     -12.86318874
Sn       0.00000000       0.00000000       2.12626263       0.00000000       0.00000000      12.86318874
2
Properties=species:S:1:pos:R:3:forces:R:3 energy=-2.5479848992064795 pbc="F F F"
Sn       0.00000000       0.00000000       0.00000000       0.00000000       0.00000000     -10.11787510
Sn       0.00000000       0.00000000       2.18585859       0.00000000       0.00000000      10.11787510
2
Properties=species:S:1:pos:R:3:forces:R:3 energy=-3.0796230533504874 pbc="F F F"
Sn       0.00000000       0.00000000       0.00000000       0.00000000       0.00000000      -7.79198980
Sn       0.00000000       0.00000000       2.24545455       0.00000000       0.00000000       7.79198980
2
Properties=species:S:1:pos:R:3:forces:R:3 energy=-3.4845821080922894 pbc="F F F"
Sn       0.00000000       0.00000000       0.00000000       0.00000000       0.00000000      -5.86083221
Sn       0.00000000       0.00000000       2.30505051       0.00000000       0.00000000       5.86083221
2
Properties=species:S:1:pos:R:3:forces:R:3 energy=-3.785184056081179 pbc="F F F"
Sn       0.00000000       0.00000000       0.00000000       0.00000000       0.00000000      -4.28161907
Sn       0.00000000       0.00000000       2.36464646       0.00000000       0.00000000       4.28161907
2
Properties=species:S:1:pos:R:3:forces:R:3 energy=-4.000874163069229 pbc="F F F"
Sn       0.00000000       0.00000000       0.00000000       0.00000000       0.00000000      -3.00236821
Sn       0.00000000       0.00000000       2.42424242       0.00000000       0.00000000       3.00236821
2
Properties=species:S:1:pos:R:3:forces:R:3 energy=-4.147998723781708 pbc="F F F"
Sn       0.00000000       0.00000000       0.00000000       0.00000000       0.00000000      -1.97294712
Sn       0.00000000       0.00000000       2.48383838       0.00000000       0.00000000       1.97294712
2
Properties=species:S:1:pos:R:3:forces:R:3 energy=-4.240158073469611 pbc="F F F"
Sn       0.00000000       0.00000000       0.00000000       0.00000000       0.00000000      -1.15149033
Sn       0.00000000       0.00000000       2.54343434       0.00000000       0.00000000       1.15149033
2
Properties=species:S:1:pos:R:3:forces:R:3 energy=-4.288726289726946 pbc="F F F"
Sn       0.00000000       0.00000000       0.00000000       0.00000000       0.00000000      -0.50531590
Sn       0.00000000       0.00000000       2.60303030       0.00000000       0.00000000       0.50531590
2
Properties=species:S:1:pos:R:3:forces:R:3 energy=-4.30334725519073 pbc="F F F"
Sn       0.00000000       0.00000000       0.00000000       0.00000000       0.00000000      -0.00825101
Sn       0.00000000       0.00000000       2.66262626       0.00000000       0.00000000       0.00825101
2
Properties=species:S:1:pos:R:3:forces:R:3 energy=-4.292196040331418 pbc="F F F"
Sn       0.00000000       0.00000000       0.00000000       0.00000000       0.00000000       0.36370295
Sn       0.00000000       0.00000000       2.72222222       0.00000000       0.00000000      -0.36370295
2
Properties=species:S:1:pos:R:3:forces:R:3 energy=-4.261973807131795 pbc="F F F"
Sn       0.00000000       0.00000000       0.00000000       0.00000000       0.00000000       0.63626575
Sn       0.00000000       0.00000000       2.78181818       0.00000000       0.00000000      -0.63626575
2
Properties=species:S:1:pos:R:3:forces:R:3 energy=-4.21777418214508 pbc="F F F"
Sn       0.00000000       0.00000000       0.00000000       0.00000000       0.00000000       0.83751106
Sn       0.00000000       0.00000000       2.84141414       0.00000000       0.00000000      -0.83751106
2
Properties=species:S:1:pos:R:3:forces:R:3 energy=-4.163034896209293 pbc="F F F"
Sn       0.00000000       0.00000000       0.00000000       0.00000000       0.00000000       0.99394506
Sn       0.00000000       0.00000000       2.90101010       0.00000000       0.00000000      -0.99394506
2
Properties=species:S:1:pos:R:3:forces:R:3 energy=-4.099804605523726 pbc="F F F"
Sn       0.00000000       0.00000000       0.00000000       0.00000000       0.00000000       1.12481415
Sn       0.00000000       0.00000000       2.96060606       0.00000000       0.00000000      -1.12481415
2
Properties=species:S:1:pos:R:3:forces:R:3 energy=-4.02929024954186 pbc="F F F"
Sn       0.00000000       0.00000000       0.00000000       0.00000000       0.00000000       1.23904872
Sn       0.00000000       0.00000000       3.02020202       0.00000000       0.00000000      -1.23904872
2
Properties=species:S:1:pos:R:3:forces:R:3 energy=-3.9524441999366204 pbc="F F F"
Sn       0.00000000       0.00000000       0.00000000       0.00000000       0.00000000       1.33682263
Sn       0.00000000       0.00000000       3.07979798       0.00000000       0.00000000      -1.33682263
2
Properties=species:S:1:pos:R:3:forces:R:3 energy=-3.870360185034075 pbc="F F F"
Sn       0.00000000       0.00000000       0.00000000       0.00000000       0.00000000       1.41408396
Sn       0.00000000       0.00000000       3.13939394       0.00000000       0.00000000      -1.41408396
2
Properties=species:S:1:pos:R:3:forces:R:3 energy=-3.7843764005213427 pbc="F F F"
Sn       0.00000000       0.00000000       0.00000000       0.00000000       0.00000000       1.46736109
Sn       0.00000000       0.00000000       3.19898990       0.00000000       0.00000000      -1.46736109
2
Properties=species:S:1:pos:R:3:forces:R:3 energy=-3.6959366361735095 pbc="F F F"
Sn       0.00000000       0.00000000       0.00000000       0.00000000       0.00000000       1.49689555
Sn       0.00000000       0.00000000       3.25858586       0.00000000       0.00000000      -1.49689555
2
Properties=species:S:1:pos:R:3:forces:R:3 energy=-3.6063397147508813 pbc="F F F"
Sn       0.00000000       0.00000000       0.00000000       0.00000000       0.00000000       1.50728941
Sn       0.00000000       0.00000000       3.31818182       0.00000000       0.00000000      -1.50728941
2
Properties=species:S:1:pos:R:3:forces:R:3 energy=-3.5165259274372396 pbc="F F F"
Sn       0.00000000       0.00000000       0.00000000       0.00000000       0.00000000       1.50522649
Sn       0.00000000       0.00000000       3.37777778       0.00000000       0.00000000      -1.50522649
2
Properties=species:S:1:pos:R:3:forces:R:3 energy=-3.4270773369624936 pbc="F F F"
Sn       0.00000000       0.00000000       0.00000000       0.00000000       0.00000000       1.49556029
Sn       0.00000000       0.00000000       3.43737374       0.00000000       0.00000000      -1.49556029
2
Properties=species:S:1:pos:R:3:forces:R:3 energy=-3.3383926894043165 pbc="F F F"
Sn       0.00000000       0.00000000       0.00000000       0.00000000       0.00000000       1.47948647
Sn       0.00000000       0.00000000       3.49696970       0.00000000       0.00000000      -1.47948647
2
Properties=species:S:1:pos:R:3:forces:R:3 energy=-3.2508797224124106 pbc="F F F"
Sn       0.00000000       0.00000000       0.00000000       0.00000000       0.00000000       1.45604670
Sn       0.00000000       0.00000000       3.55656566       0.00000000       0.00000000      -1.45604670
2
Properties=species:S:1:pos:R:3:forces:R:3 energy=-3.165013501216942 pbc="F F F"
Sn       0.00000000       0.00000000       0.00000000       0.00000000       0.00000000       1.42410648
Sn       0.00000000       0.00000000       3.61616162       0.00000000       0.00000000      -1.42410648
2
Properties=species:S:1:pos:R:3:forces:R:3 energy=-3.081315131659464 pbc="F F F"
Sn       0.00000000       0.00000000       0.00000000       0.00000000       0.00000000       1.38330078
Sn       0.00000000       0.00000000       3.67575758       0.00000000       0.00000000      -1.38330078
2
Properties=species:S:1:pos:R:3:forces:R:3 energy=-3.0002983122215805 pbc="F F F"
Sn       0.00000000       0.00000000       0.00000000       0.00000000       0.00000000       1.33431339
Sn       0.00000000       0.00000000       3.73535354       0.00000000       0.00000000      -1.33431339
2
Properties=species:S:1:pos:R:3:forces:R:3 energy=-2.922405736739977 pbc="F F F"
Sn       0.00000000       0.00000000       0.00000000       0.00000000       0.00000000       1.27879608
Sn       0.00000000       0.00000000       3.79494949       0.00000000       0.00000000      -1.27879608
2
Properties=species:S:1:pos:R:3:forces:R:3 energy=-2.8479620075853007 pbc="F F F"
Sn       0.00000000       0.00000000       0.00000000       0.00000000       0.00000000       1.21896255
Sn       0.00000000       0.00000000       3.85454545       0.00000000       0.00000000      -1.21896255
2
Properties=species:S:1:pos:R:3:forces:R:3 energy=-2.777155948530316 pbc="F F F"
Sn       0.00000000       0.00000000       0.00000000       0.00000000       0.00000000       1.15709925
Sn       0.00000000       0.00000000       3.91414141       0.00000000       0.00000000      -1.15709925
2
Properties=species:S:1:pos:R:3:forces:R:3 energy=-2.710045945345677 pbc="F F F"
Sn       0.00000000       0.00000000       0.00000000       0.00000000       0.00000000       1.09514058
Sn       0.00000000       0.00000000       3.97373737       0.00000000       0.00000000      -1.09514058
2
Properties=species:S:1:pos:R:3:forces:R:3 energy=-2.6465977970135053 pbc="F F F"
Sn       0.00000000       0.00000000       0.00000000       0.00000000       0.00000000       1.03444862
Sn       0.00000000       0.00000000       4.03333333       0.00000000       0.00000000      -1.03444862
2
Properties=species:S:1:pos:R:3:forces:R:3 energy=-2.58670807025291 pbc="F F F"
Sn       0.00000000       0.00000000       0.00000000       0.00000000       0.00000000       0.97576624
Sn       0.00000000       0.00000000       4.09292929       0.00000000       0.00000000      -0.97576624
2
Properties=species:S:1:pos:R:3:forces:R:3 energy=-2.5302481189301673 pbc="F F F"
Sn       0.00000000       0.00000000       0.00000000       0.00000000       0.00000000       0.91937053
Sn       0.00000000       0.00000000       4.15252525       0.00000000       0.00000000      -0.91937053
2
Properties=species:S:1:pos:R:3:forces:R:3 energy=-2.4770818045652923 pbc="F F F"
Sn       0.00000000       0.00000000       0.00000000       0.00000000       0.00000000       0.86525267
Sn       0.00000000       0.00000000       4.21212121       0.00000000       0.00000000      -0.86525267
2
Properties=species:S:1:pos:R:3:forces:R:3 energy=-2.4270734465085266 pbc="F F F"
Sn       0.00000000       0.00000000       0.00000000       0.00000000       0.00000000       0.81334090
Sn       0.00000000       0.00000000       4.27171717       0.00000000       0.00000000      -0.81334090
2
Properties=species:S:1:pos:R:3:forces:R:3 energy=-2.3800940643409843 pbc="F F F"
Sn       0.00000000       0.00000000       0.00000000       0.00000000       0.00000000       0.76365972
Sn       0.00000000       0.00000000       4.33131313       0.00000000       0.00000000      -0.76365972
2
Properties=species:S:1:pos:R:3:forces:R:3 energy=-2.3360032517269986 pbc="F F F"
Sn       0.00000000       0.00000000       0.00000000       0.00000000       0.00000000       0.71641940
Sn       0.00000000       0.00000000       4.39090909       0.00000000       0.00000000      -0.71641940
2
Properties=species:S:1:pos:R:3:forces:R:3 energy=-2.294645139137387 pbc="F F F"
Sn       0.00000000       0.00000000       0.00000000       0.00000000       0.00000000       0.67205596
Sn       0.00000000       0.00000000       4.45050505       0.00000000       0.00000000      -0.67205596
2
Properties=species:S:1:pos:R:3:forces:R:3 energy=-2.2558307698815288 pbc="F F F"
Sn       0.00000000       0.00000000       0.00000000       0.00000000       0.00000000       0.63118380
Sn       0.00000000       0.00000000       4.51010101       0.00000000       0.00000000      -0.63118380
2
Properties=species:S:1:pos:R:3:forces:R:3 energy=-2.219328891313721 pbc="F F F"
Sn       0.00000000       0.00000000       0.00000000       0.00000000       0.00000000       0.59452516
Sn       0.00000000       0.00000000       4.56969697       0.00000000       0.00000000      -0.59452516
2
Properties=species:S:1:pos:R:3:forces:R:3 energy=-2.184869616643062 pbc="F F F"
Sn       0.00000000       0.00000000       0.00000000       0.00000000       0.00000000       0.56277120
Sn       0.00000000       0.00000000       4.62929293       0.00000000       0.00000000      -0.56277120
2
Properties=species:S:1:pos:R:3:forces:R:3 energy=-2.1521444321010126 pbc="F F F"
Sn       0.00000000       0.00000000       0.00000000       0.00000000       0.00000000       0.53642547
Sn       0.00000000       0.00000000       4.68888889       0.00000000       0.00000000      -0.53642547
2
Properties=species:S:1:pos:R:3:forces:R:3 energy=-2.120822927423623 pbc="F F F"
Sn       0.00000000       0.00000000       0.00000000       0.00000000       0.00000000       0.51556438
Sn       0.00000000       0.00000000       4.74848485       0.00000000       0.00000000      -0.51556438
2
Properties=species:S:1:pos:R:3:forces:R:3 energy=-2.0905950189467055 pbc="F F F"
Sn       0.00000000       0.00000000       0.00000000       0.00000000       0.00000000       0.49961346
Sn       0.00000000       0.00000000       4.80808081       0.00000000       0.00000000      -0.49961346
2
Properties=species:S:1:pos:R:3:forces:R:3 energy=-2.061204617310642 pbc="F F F"
Sn       0.00000000       0.00000000       0.00000000       0.00000000       0.00000000       0.48706686
Sn       0.00000000       0.00000000       4.86767677       0.00000000       0.00000000      -0.48706686
2
Properties=species:S:1:pos:R:3:forces:R:3 energy=-2.0325207593922516 pbc="F F F"
Sn       0.00000000       0.00000000       0.00000000       0.00000000       0.00000000       0.47541383
Sn       0.00000000       0.00000000       4.92727273       0.00000000       0.00000000      -0.47541383
2
Properties=species:S:1:pos:R:3:forces:R:3 energy=-2.004586292044306 pbc="F F F"
Sn       0.00000000       0.00000000       0.00000000       0.00000000       0.00000000       0.46137598
Sn       0.00000000       0.00000000       4.98686869       0.00000000       0.00000000      -0.46137598
2
Properties=species:S:1:pos:R:3:forces:R:3 energy=-1.9776372109269251 pbc="F F F"
Sn       0.00000000       0.00000000       0.00000000       0.00000000       0.00000000       0.44212687
Sn       0.00000000       0.00000000       5.04646465       0.00000000       0.00000000      -0.44212687
2
Properties=species:S:1:pos:R:3:forces:R:3 energy=-1.9519955476250777 pbc="F F F"
Sn       0.00000000       0.00000000       0.00000000       0.00000000       0.00000000       0.41783217
Sn       0.00000000       0.00000000       5.10606061       0.00000000       0.00000000      -0.41783217
2
Properties=species:S:1:pos:R:3:forces:R:3 energy=-1.9278119821212811 pbc="F F F"
Sn       0.00000000       0.00000000       0.00000000       0.00000000       0.00000000       0.39468530
Sn       0.00000000       0.00000000       5.16565657       0.00000000       0.00000000      -0.39468530
2
Properties=species:S:1:pos:R:3:forces:R:3 energy=-1.904706363431164 pbc="F F F"
Sn       0.00000000       0.00000000       0.00000000       0.00000000       0.00000000       0.38359472
Sn       0.00000000       0.00000000       5.22525253       0.00000000       0.00000000      -0.38359472
2
Properties=species:S:1:pos:R:3:forces:R:3 energy=-1.8817494404878536 pbc="F F F"
Sn       0.00000000       0.00000000       0.00000000       0.00000000       0.00000000       0.38904488
Sn       0.00000000       0.00000000       5.28484848       0.00000000       0.00000000      -0.38904488
2
Properties=species:S:1:pos:R:3:forces:R:3 energy=-1.8582761681039122 pbc="F F F"
Sn       0.00000000       0.00000000       0.00000000       0.00000000       0.00000000       0.39712361
Sn       0.00000000       0.00000000       5.34444444       0.00000000       0.00000000      -0.39712361
2
Properties=species:S:1:pos:R:3:forces:R:3 energy=-1.8347990521179214 pbc="F F F"
Sn       0.00000000       0.00000000       0.00000000       0.00000000       0.00000000       0.38659421
Sn       0.00000000       0.00000000       5.40404040       0.00000000       0.00000000      -0.38659421
2
Properties=species:S:1:pos:R:3:forces:R:3 energy=-1.8126231714974077 pbc="F F F"
Sn       0.00000000       0.00000000       0.00000000       0.00000000       0.00000000       0.35529295
Sn       0.00000000       0.00000000       5.46363636       0.00000000       0.00000000      -0.35529295
2
Properties=species:S:1:pos:R:3:forces:R:3 energy=-1.7924452481910653 pbc="F F F"
Sn       0.00000000       0.00000000       0.00000000       0.00000000       0.00000000       0.32469711
Sn       0.00000000       0.00000000       5.52323232       0.00000000       0.00000000      -0.32469711
2
Properties=species:S:1:pos:R:3:forces:R:3 energy=-1.7734221837540705 pbc="F F F"
Sn       0.00000000       0.00000000       0.00000000       0.00000000       0.00000000       0.31868091
Sn       0.00000000       0.00000000       5.58282828       0.00000000       0.00000000      -0.31868091
2
Properties=species:S:1:pos:R:3:forces:R:3 energy=-1.7539840793741077 pbc="F F F"
Sn       0.00000000       0.00000000       0.00000000       0.00000000       0.00000000       0.33535352
Sn       0.00000000       0.00000000       5.64242424       0.00000000       0.00000000      -0.33535352
2
Properties=species:S:1:pos:R:3:forces:R:3 energy=-1.733684557698307 pbc="F F F"
Sn       0.00000000       0.00000000       0.00000000       0.00000000       0.00000000       0.33964694
Sn       0.00000000       0.00000000       5.70202020       0.00000000       0.00000000      -0.33964694
2
Properties=species:S:1:pos:R:3:forces:R:3 energy=-1.7144786004700718 pbc="F F F"
Sn       0.00000000       0.00000000       0.00000000       0.00000000       0.00000000       0.29682449
Sn       0.00000000       0.00000000       5.76161616       0.00000000       0.00000000      -0.29682449
2
Properties=species:S:1:pos:R:3:forces:R:3 energy=-1.699209901853969 pbc="F F F"
Sn       0.00000000       0.00000000       0.00000000       0.00000000       0.00000000       0.21000972
Sn       0.00000000       0.00000000       5.82121212       0.00000000       0.00000000      -0.21000972
2
Properties=species:S:1:pos:R:3:forces:R:3 energy=-1.6896922741159623 pbc="F F F"
Sn       0.00000000       0.00000000       0.00000000       0.00000000       0.00000000       0.11192007
Sn       0.00000000       0.00000000       5.88080808       0.00000000       0.00000000      -0.11192007
2
Properties=species:S:1:pos:R:3:forces:R:3 energy=-1.6853646084174563 pbc="F F F"
Sn       0.00000000       0.00000000       0.00000000       0.00000000       0.00000000       0.03817159
Sn       0.00000000       0.00000000       5.94040404       0.00000000       0.00000000      -0.03817159
2
Properties=species:S:1:pos:R:3:forces:R:3 energy=-1.6841906114719334 pbc="F F F"
Sn       0.00000000       0.00000000       0.00000000       0.00000000       0.00000000       0.01052490
Sn       0.00000000       0.00000000       6.00000000       0.00000000       0.00000000      -0.01052490
