2
Properties=species:S:1:pos:R:3:forces:R:3 energy=33282.07876267539 pbc="F F F"
Tc       0.00000000       0.00000000       0.00000000       0.00000000       0.00000000 -788921.06250000
Tc       0.00000000       0.00000000       0.10000000       0.00000000       0.00000000  788921.06250000
2
Properties=species:S:1:pos:R:3:forces:R:3 energy=9917.989895487888 pbc="F F F"
Tc       0.00000000       0.00000000       0.00000000       0.00000000       0.00000000 -175220.42187500
Tc       0.00000000       0.00000000       0.15959596       0.00000000       0.00000000  175220.42187500
2
Properties=species:S:1:pos:R:3:forces:R:3 energy=3835.9833036910127 pbc="F F F"
Tc       0.00000000       0.00000000       0.00000000       0.00000000       0.00000000  -55639.96093750
Tc       0.00000000       0.00000000       0.21919192       0.00000000       0.00000000   55639.96093750
2
Properties=species:S:1:pos:R:3:forces:R:3 energy=1719.079617167575 pbc="F F F"
Tc       0.00000000       0.00000000       0.00000000       0.00000000       0.00000000  -21593.13671875
Tc       0.00000000       0.00000000       0.27878788       0.00000000       0.00000000   21593.13671875
2
Properties=species:S:1:pos:R:3:forces:R:3 energy=849.770596177817 pbc="F F F"
Tc       0.00000000       0.00000000       0.00000000       0.00000000       0.00000000   -9461.46777344
Tc       0.00000000       0.00000000       0.33838384       0.00000000       0.00000000    9461.46777344
2
Properties=species:S:1:pos:R:3:forces:R:3 energy=454.54342333259007 pbc="F F F"
Tc       0.00000000       0.00000000       0.00000000       0.00000000       0.00000000   -4486.85058594
Tc       0.00000000       0.00000000       0.39797980       0.00000000       0.00000000    4486.85058594
2
Properties=species:S:1:pos:R:3:forces:R:3 energy=262.1700102656595 pbc="F F F"
Tc       0.00000000       0.00000000       0.00000000       0.00000000       0.00000000   -2249.74853516
Tc       0.00000000       0.00000000       0.45757576       0.00000000       0.00000000    2249.74853516
2
Properties=species:S:1:pos:R:3:forces:R:3 energy=163.88470145944711 pbc="F F F"
Tc       0.00000000       0.00000000       0.00000000       0.00000000       0.00000000   -1173.13623047
Tc       0.00000000       0.00000000       0.51717172       0.00000000       0.00000000    1173.13623047
2
Properties=species:S:1:pos:R:3:forces:R:3 energy=112.0747268523934 pbc="F F F"
Tc       0.00000000       0.00000000       0.00000000       0.00000000       0.00000000    -624.16156006
Tc       0.00000000       0.00000000       0.57676768       0.00000000       0.00000000     624.16156006
2
Properties=species:S:1:pos:R:3:forces:R:3 energy=84.51389016177151 pbc="F F F"
Tc       0.00000000       0.00000000       0.00000000       0.00000000       0.00000000    -330.29446411
Tc       0.00000000       0.00000000       0.63636364       0.00000000       0.00000000     330.29446411
2
Properties=species:S:1:pos:R:3:forces:R:3 energy=70.10717493343186 pbc="F F F"
Tc       0.00000000       0.00000000       0.00000000       0.00000000       0.00000000    -169.03732300
Tc       0.00000000       0.00000000       0.69595960       0.00000000       0.00000000     169.03732300
2
Properties=species:S:1:pos:R:3:forces:R:3 energy=62.97940571664279 pbc="F F F"
Tc       0.00000000       0.00000000       0.00000000       0.00000000       0.00000000     -78.52525330
Tc       0.00000000       0.00000000       0.75555556       0.00000000       0.00000000      78.52525330
2
Properties=species:S:1:pos:R:3:forces:R:3 energy=59.98319790586348 pbc="F F F"
Tc       0.00000000       0.00000000       0.00000000       0.00000000       0.00000000     -27.20222855
Tc       0.00000000       0.00000000       0.81515152       0.00000000       0.00000000      27.20222855
2
Properties=species:S:1:pos:R:3:forces:R:3 energy=59.189520173373126 pbc="F F F"
Tc       0.00000000       0.00000000       0.00000000       0.00000000       0.00000000      -3.65816188
Tc       0.00000000       0.00000000       0.87474747       0.00000000       0.00000000       3.65816188
2
Properties=species:S:1:pos:R:3:forces:R:3 energy=59.07170784230581 pbc="F F F"
Tc       0.00000000       0.00000000       0.00000000       0.00000000       0.00000000      -4.02371025
Tc       0.00000000       0.00000000       0.93434343       0.00000000       0.00000000       4.02371025
2
Properties=species:S:1:pos:R:3:forces:R:3 energy=58.31272149260753 pbc="F F F"
Tc       0.00000000       0.00000000       0.00000000       0.00000000       0.00000000     -24.26757050
Tc       0.00000000       0.00000000       0.99393939       0.00000000       0.00000000      24.26757050
2
Properties=species:S:1:pos:R:3:forces:R:3 energy=55.91958025594605 pbc="F F F"
Tc       0.00000000       0.00000000       0.00000000       0.00000000       0.00000000     -57.54250717
Tc       0.00000000       0.00000000       1.05353535       0.00000000       0.00000000      57.54250717
2
Properties=species:S:1:pos:R:3:forces:R:3 energy=51.36304458548631 pbc="F F F"
Tc       0.00000000       0.00000000       0.00000000       0.00000000       0.00000000     -95.36628723
Tc       0.00000000       0.00000000       1.11313131       0.00000000       0.00000000      95.36628723
2
Properties=species:S:1:pos:R:3:forces:R:3 energy=44.65064098663934 pbc="F F F"
Tc       0.00000000       0.00000000       0.00000000       0.00000000       0.00000000    -128.26260376
Tc       0.00000000       0.00000000       1.17272727       0.00000000       0.00000000     128.26260376
2
Properties=species:S:1:pos:R:3:forces:R:3 energy=36.35453609868121 pbc="F F F"
Tc       0.00000000       0.00000000       0.00000000       0.00000000       0.00000000    -147.27488708
Tc       0.00000000       0.00000000       1.23232323       0.00000000       0.00000000     147.27488708
2
Properties=species:S:1:pos:R:3:forces:R:3 energy=27.44786314815429 pbc="F F F"
Tc       0.00000000       0.00000000       0.00000000       0.00000000       0.00000000    -148.96575928
Tc       0.00000000       0.00000000       1.29191919       0.00000000       0.00000000     148.96575928
2
Properties=species:S:1:pos:R:3:forces:R:3 energy=18.840210223249205 pbc="F F F"
Tc       0.00000000       0.00000000       0.00000000       0.00000000       0.00000000    -138.51617432
Tc       0.00000000       0.00000000       1.35151515       0.00000000       0.00000000     138.51617432
2
Properties=species:S:1:pos:R:3:forces:R:3 energy=11.05796572671975 pbc="F F F"
Tc       0.00000000       0.00000000       0.00000000       0.00000000       0.00000000    -121.80953217
Tc       0.00000000       0.00000000       1.41111111       0.00000000       0.00000000     121.80953217
2
Properties=species:S:1:pos:R:3:forces:R:3 energy=4.422363705730858 pbc="F F F"
Tc       0.00000000       0.00000000       0.00000000       0.00000000       0.00000000    -100.03993988
Tc       0.00000000       0.00000000       1.47070707       0.00000000       0.00000000     100.03993988
2
Properties=species:S:1:pos:R:3:forces:R:3 energy=-0.7945184330119672 pbc="F F F"
Tc       0.00000000       0.00000000       0.00000000       0.00000000       0.00000000     -74.88755798
Tc       0.00000000       0.00000000       1.53030303       0.00000000       0.00000000      74.88755798
2
Properties=species:S:1:pos:R:3:forces:R:3 energy=-4.552412848206932 pbc="F F F"
Tc       0.00000000       0.00000000       0.00000000       0.00000000       0.00000000     -52.03733444
Tc       0.00000000       0.00000000       1.58989899       0.00000000       0.00000000      52.03733444
2
Properties=species:S:1:pos:R:3:forces:R:3 energy=-7.099133789676756 pbc="F F F"
Tc       0.00000000       0.00000000       0.00000000       0.00000000       0.00000000     -34.19203186
Tc       0.00000000       0.00000000       1.64949495       0.00000000       0.00000000      34.19203186
2
Properties=species:S:1:pos:R:3:forces:R:3 energy=-8.711333614212814 pbc="F F F"
Tc       0.00000000       0.00000000       0.00000000       0.00000000       0.00000000     -20.62550163
Tc       0.00000000       0.00000000       1.70909091       0.00000000       0.00000000      20.62550163
2
Properties=species:S:1:pos:R:3:forces:R:3 energy=-9.64623687059159 pbc="F F F"
Tc       0.00000000       0.00000000       0.00000000       0.00000000       0.00000000     -11.47601986
Tc       0.00000000       0.00000000       1.76868687       0.00000000       0.00000000      11.47601986
2
Properties=species:S:1:pos:R:3:forces:R:3 energy=-10.154478300426575 pbc="F F F"
Tc       0.00000000       0.00000000       0.00000000       0.00000000       0.00000000      -6.09073639
Tc       0.00000000       0.00000000       1.82828283       0.00000000       0.00000000       6.09073639
2
Properties=species:S:1:pos:R:3:forces:R:3 energy=-10.41877868058653 pbc="F F F"
Tc       0.00000000       0.00000000       0.00000000       0.00000000       0.00000000      -3.06524873
Tc       0.00000000       0.00000000       1.88787879       0.00000000       0.00000000       3.06524873
2
Properties=species:S:1:pos:R:3:forces:R:3 energy=-10.544572409789136 pbc="F F F"
Tc       0.00000000       0.00000000       0.00000000       0.00000000       0.00000000      -1.29988432
Tc       0.00000000       0.00000000       1.94747475       0.00000000       0.00000000       1.29988432
2
Properties=species:S:1:pos:R:3:forces:R:3 energy=-10.58518082890537 pbc="F F F"
Tc       0.00000000       0.00000000       0.00000000       0.00000000       0.00000000      -0.12071095
Tc       0.00000000       0.00000000       2.00707071       0.00000000       0.00000000       0.12071095
2
Properties=species:S:1:pos:R:3:forces:R:3 energy=-10.56275360348537 pbc="F F F"
Tc       0.00000000       0.00000000       0.00000000       0.00000000       0.00000000       0.85961157
Tc       0.00000000       0.00000000       2.06666667       0.00000000       0.00000000      -0.85961157
2
Properties=species:S:1:pos:R:3:forces:R:3 energy=-10.483387759855878 pbc="F F F"
Tc       0.00000000       0.00000000       0.00000000       0.00000000       0.00000000       1.80204999
Tc       0.00000000       0.00000000       2.12626263       0.00000000       0.00000000      -1.80204999
2
Properties=species:S:1:pos:R:3:forces:R:3 energy=-10.348094356559939 pbc="F F F"
Tc       0.00000000       0.00000000       0.00000000       0.00000000       0.00000000       2.73752069
Tc       0.00000000       0.00000000       2.18585859       0.00000000       0.00000000      -2.73752069
2
Properties=species:S:1:pos:R:3:forces:R:3 energy=-10.157140005663093 pbc="F F F"
Tc       0.00000000       0.00000000       0.00000000       0.00000000       0.00000000       3.67033625
Tc       0.00000000       0.00000000       2.24545455       0.00000000       0.00000000      -3.67033625
2
Properties=species:S:1:pos:R:3:forces:R:3 energy=-9.910923175425554 pbc="F F F"
Tc       0.00000000       0.00000000       0.00000000       0.00000000       0.00000000       4.58612633
Tc       0.00000000       0.00000000       2.30505051       0.00000000       0.00000000      -4.58612633
2
Properties=species:S:1:pos:R:3:forces:R:3 energy=-9.612081287051543 pbc="F F F"
Tc       0.00000000       0.00000000       0.00000000       0.00000000       0.00000000       5.42103004
Tc       0.00000000       0.00000000       2.36464646       0.00000000       0.00000000      -5.42103004
2
Properties=species:S:1:pos:R:3:forces:R:3 energy=-9.268675839907488 pbc="F F F"
Tc       0.00000000       0.00000000       0.00000000       0.00000000       0.00000000       6.05904675
Tc       0.00000000       0.00000000       2.42424242       0.00000000       0.00000000      -6.05904675
2
Properties=species:S:1:pos:R:3:forces:R:3 energy=-8.896572460267977 pbc="F F F"
Tc       0.00000000       0.00000000       0.00000000       0.00000000       0.00000000       6.36144257
Tc       0.00000000       0.00000000       2.48383838       0.00000000       0.00000000      -6.36144257
2
Properties=species:S:1:pos:R:3:forces:R:3 energy=-8.51943047611457 pbc="F F F"
Tc       0.00000000       0.00000000       0.00000000       0.00000000       0.00000000       6.21378803
Tc       0.00000000       0.00000000       2.54343434       0.00000000       0.00000000      -6.21378803
2
Properties=species:S:1:pos:R:3:forces:R:3 energy=-8.16581705866394 pbc="F F F"
Tc       0.00000000       0.00000000       0.00000000       0.00000000       0.00000000       5.57231855
Tc       0.00000000       0.00000000       2.60303030       0.00000000       0.00000000      -5.57231855
2
Properties=species:S:1:pos:R:3:forces:R:3 energy=-7.864095828378791 pbc="F F F"
Tc       0.00000000       0.00000000       0.00000000       0.00000000       0.00000000       4.48894215
Tc       0.00000000       0.00000000       2.66262626       0.00000000       0.00000000      -4.48894215
2
Properties=species:S:1:pos:R:3:forces:R:3 energy=-7.636803668152786 pbc="F F F"
Tc       0.00000000       0.00000000       0.00000000       0.00000000       0.00000000       3.10389590
Tc       0.00000000       0.00000000       2.72222222       0.00000000       0.00000000      -3.10389590
2
Properties=species:S:1:pos:R:3:forces:R:3 energy=-7.4961123450139 pbc="F F F"
Tc       0.00000000       0.00000000       0.00000000       0.00000000       0.00000000       1.62075675
Tc       0.00000000       0.00000000       2.78181818       0.00000000       0.00000000      -1.62075675
2
Properties=species:S:1:pos:R:3:forces:R:3 energy=-7.440795898584987 pbc="F F F"
Tc       0.00000000       0.00000000       0.00000000       0.00000000       0.00000000       0.27895331
Tc       0.00000000       0.00000000       2.84141414       0.00000000       0.00000000      -0.27895331
2
Properties=species:S:1:pos:R:3:forces:R:3 energy=-7.45598532087176 pbc="F F F"
Tc       0.00000000       0.00000000       0.00000000       0.00000000       0.00000000      -0.72202617
Tc       0.00000000       0.00000000       2.90101010       0.00000000       0.00000000       0.72202617
2
Properties=species:S:1:pos:R:3:forces:R:3 energy=-7.518719087877862 pbc="F F F"
Tc       0.00000000       0.00000000       0.00000000       0.00000000       0.00000000      -1.31656051
Tc       0.00000000       0.00000000       2.96060606       0.00000000       0.00000000       1.31656051
2
Properties=species:S:1:pos:R:3:forces:R:3 energy=-7.6054492154316184 pbc="F F F"
Tc       0.00000000       0.00000000       0.00000000       0.00000000       0.00000000      -1.53679156
Tc       0.00000000       0.00000000       3.02020202       0.00000000       0.00000000       1.53679156
2
Properties=species:S:1:pos:R:3:forces:R:3 energy=-7.695922702161439 pbc="F F F"
Tc       0.00000000       0.00000000       0.00000000       0.00000000       0.00000000      -1.45751464
Tc       0.00000000       0.00000000       3.07979798       0.00000000       0.00000000       1.45751464
2
Properties=species:S:1:pos:R:3:forces:R:3 energy=-7.775233400527474 pbc="F F F"
Tc       0.00000000       0.00000000       0.00000000       0.00000000       0.00000000      -1.17989624
Tc       0.00000000       0.00000000       3.13939394       0.00000000       0.00000000       1.17989624
2
Properties=species:S:1:pos:R:3:forces:R:3 energy=-7.834637376037541 pbc="F F F"
Tc       0.00000000       0.00000000       0.00000000       0.00000000       0.00000000      -0.80485719
Tc       0.00000000       0.00000000       3.19898990       0.00000000       0.00000000       0.80485719
2
Properties=species:S:1:pos:R:3:forces:R:3 energy=-7.8708211541733855 pbc="F F F"
Tc       0.00000000       0.00000000       0.00000000       0.00000000       0.00000000      -0.41150808
Tc       0.00000000       0.00000000       3.25858586       0.00000000       0.00000000       0.41150808
2
Properties=species:S:1:pos:R:3:forces:R:3 energy=-7.884360890539967 pbc="F F F"
Tc       0.00000000       0.00000000       0.00000000       0.00000000       0.00000000      -0.05134887
Tc       0.00000000       0.00000000       3.31818182       0.00000000       0.00000000       0.05134887
2
Properties=species:S:1:pos:R:3:forces:R:3 energy=-7.8781540171744275 pbc="F F F"
Tc       0.00000000       0.00000000       0.00000000       0.00000000       0.00000000       0.24836558
Tc       0.00000000       0.00000000       3.37777778       0.00000000       0.00000000      -0.24836558
2
Properties=species:S:1:pos:R:3:forces:R:3 energy=-7.856149231927462 pbc="F F F"
Tc       0.00000000       0.00000000       0.00000000       0.00000000       0.00000000       0.47843033
Tc       0.00000000       0.00000000       3.43737374       0.00000000       0.00000000      -0.47843033
2
Properties=species:S:1:pos:R:3:forces:R:3 energy=-7.8224674695459155 pbc="F F F"
Tc       0.00000000       0.00000000       0.00000000       0.00000000       0.00000000       0.64130074
Tc       0.00000000       0.00000000       3.49696970       0.00000000       0.00000000      -0.64130074
2
Properties=species:S:1:pos:R:3:forces:R:3 energy=-7.780877214088468 pbc="F F F"
Tc       0.00000000       0.00000000       0.00000000       0.00000000       0.00000000       0.74555004
Tc       0.00000000       0.00000000       3.55656566       0.00000000       0.00000000      -0.74555004
2
Properties=species:S:1:pos:R:3:forces:R:3 energy=-7.734553477421167 pbc="F F F"
Tc       0.00000000       0.00000000       0.00000000       0.00000000       0.00000000       0.80200118
Tc       0.00000000       0.00000000       3.61616162       0.00000000       0.00000000      -0.80200118
2
Properties=species:S:1:pos:R:3:forces:R:3 energy=-7.686017697064722 pbc="F F F"
Tc       0.00000000       0.00000000       0.00000000       0.00000000       0.00000000       0.82157451
Tc       0.00000000       0.00000000       3.67575758       0.00000000       0.00000000      -0.82157451
2
Properties=species:S:1:pos:R:3:forces:R:3 energy=-7.637159225544848 pbc="F F F"
Tc       0.00000000       0.00000000       0.00000000       0.00000000       0.00000000       0.81440681
Tc       0.00000000       0.00000000       3.73535354       0.00000000       0.00000000      -0.81440681
2
Properties=species:S:1:pos:R:3:forces:R:3 energy=-7.58930068076168 pbc="F F F"
Tc       0.00000000       0.00000000       0.00000000       0.00000000       0.00000000       0.78937316
Tc       0.00000000       0.00000000       3.79494949       0.00000000       0.00000000      -0.78937316
2
Properties=species:S:1:pos:R:3:forces:R:3 energy=-7.54328400008963 pbc="F F F"
Tc       0.00000000       0.00000000       0.00000000       0.00000000       0.00000000       0.75362742
Tc       0.00000000       0.00000000       3.85454545       0.00000000       0.00000000      -0.75362742
2
Properties=species:S:1:pos:R:3:forces:R:3 energy=-7.499582368732855 pbc="F F F"
Tc       0.00000000       0.00000000       0.00000000       0.00000000       0.00000000       0.71238267
Tc       0.00000000       0.00000000       3.91414141       0.00000000       0.00000000      -0.71238267
2
Properties=species:S:1:pos:R:3:forces:R:3 energy=-7.458414571944193 pbc="F F F"
Tc       0.00000000       0.00000000       0.00000000       0.00000000       0.00000000       0.66902065
Tc       0.00000000       0.00000000       3.97373737       0.00000000       0.00000000      -0.66902065
2
Properties=species:S:1:pos:R:3:forces:R:3 energy=-7.419841951359394 pbc="F F F"
Tc       0.00000000       0.00000000       0.00000000       0.00000000       0.00000000       0.62554133
Tc       0.00000000       0.00000000       4.03333333       0.00000000       0.00000000      -0.62554133
2
Properties=species:S:1:pos:R:3:forces:R:3 energy=-7.3838340818120605 pbc="F F F"
Tc       0.00000000       0.00000000       0.00000000       0.00000000       0.00000000       0.58310485
Tc       0.00000000       0.00000000       4.09292929       0.00000000       0.00000000      -0.58310485
2
Properties=species:S:1:pos:R:3:forces:R:3 energy=-7.350304126975448 pbc="F F F"
Tc       0.00000000       0.00000000       0.00000000       0.00000000       0.00000000       0.54249823
Tc       0.00000000       0.00000000       4.15252525       0.00000000       0.00000000      -0.54249823
2
Properties=species:S:1:pos:R:3:forces:R:3 energy=-7.319122051418715 pbc="F F F"
Tc       0.00000000       0.00000000       0.00000000       0.00000000       0.00000000       0.50445306
Tc       0.00000000       0.00000000       4.21212121       0.00000000       0.00000000      -0.50445306
2
Properties=species:S:1:pos:R:3:forces:R:3 energy=-7.290110653854193 pbc="F F F"
Tc       0.00000000       0.00000000       0.00000000       0.00000000       0.00000000       0.46976703
Tc       0.00000000       0.00000000       4.27171717       0.00000000       0.00000000      -0.46976703
2
Properties=species:S:1:pos:R:3:forces:R:3 energy=-7.263046978641937 pbc="F F F"
Tc       0.00000000       0.00000000       0.00000000       0.00000000       0.00000000       0.43922633
Tc       0.00000000       0.00000000       4.33131313       0.00000000       0.00000000      -0.43922633
2
Properties=species:S:1:pos:R:3:forces:R:3 energy=-7.237664872701739 pbc="F F F"
Tc       0.00000000       0.00000000       0.00000000       0.00000000       0.00000000       0.41338000
Tc       0.00000000       0.00000000       4.39090909       0.00000000       0.00000000      -0.41338000
2
Properties=species:S:1:pos:R:3:forces:R:3 energy=-7.213680538314701 pbc="F F F"
Tc       0.00000000       0.00000000       0.00000000       0.00000000       0.00000000       0.39227569
Tc       0.00000000       0.00000000       4.45050505       0.00000000       0.00000000      -0.39227569
2
Properties=species:S:1:pos:R:3:forces:R:3 energy=-7.190826776699609 pbc="F F F"
Tc       0.00000000       0.00000000       0.00000000       0.00000000       0.00000000       0.37528378
Tc       0.00000000       0.00000000       4.51010101       0.00000000       0.00000000      -0.37528378
2
Properties=species:S:1:pos:R:3:forces:R:3 energy=-7.16889304399805 pbc="F F F"
Tc       0.00000000       0.00000000       0.00000000       0.00000000       0.00000000       0.36111519
Tc       0.00000000       0.00000000       4.56969697       0.00000000       0.00000000      -0.36111519
2
Properties=species:S:1:pos:R:3:forces:R:3 energy=-7.147762193078182 pbc="F F F"
Tc       0.00000000       0.00000000       0.00000000       0.00000000       0.00000000       0.34806523
Tc       0.00000000       0.00000000       4.62929293       0.00000000       0.00000000      -0.34806523
2
Properties=species:S:1:pos:R:3:forces:R:3 energy=-7.127419642810518 pbc="F F F"
Tc       0.00000000       0.00000000       0.00000000       0.00000000       0.00000000       0.33439350
Tc       0.00000000       0.00000000       4.68888889       0.00000000       0.00000000      -0.33439350
2
Properties=species:S:1:pos:R:3:forces:R:3 energy=-7.10794517680158 pbc="F F F"
Tc       0.00000000       0.00000000       0.00000000       0.00000000       0.00000000       0.31872281
Tc       0.00000000       0.00000000       4.74848485       0.00000000       0.00000000      -0.31872281
2
Properties=species:S:1:pos:R:3:forces:R:3 energy=-7.08948540254415 pbc="F F F"
Tc       0.00000000       0.00000000       0.00000000       0.00000000       0.00000000       0.30031925
Tc       0.00000000       0.00000000       4.80808081       0.00000000       0.00000000      -0.30031925
2
Properties=species:S:1:pos:R:3:forces:R:3 energy=-7.072204757567222 pbc="F F F"
Tc       0.00000000       0.00000000       0.00000000       0.00000000       0.00000000       0.27916399
Tc       0.00000000       0.00000000       4.86767677       0.00000000       0.00000000      -0.27916399
2
Properties=species:S:1:pos:R:3:forces:R:3 energy=-7.056254267930592 pbc="F F F"
Tc       0.00000000       0.00000000       0.00000000       0.00000000       0.00000000       0.25581121
Tc       0.00000000       0.00000000       4.92727273       0.00000000       0.00000000      -0.25581121
2
Properties=species:S:1:pos:R:3:forces:R:3 energy=-7.041740941947707 pbc="F F F"
Tc       0.00000000       0.00000000       0.00000000       0.00000000       0.00000000       0.23109788
Tc       0.00000000       0.00000000       4.98686869       0.00000000       0.00000000      -0.23109788
2
Properties=species:S:1:pos:R:3:forces:R:3 energy=-7.028719743149532 pbc="F F F"
Tc       0.00000000       0.00000000       0.00000000       0.00000000       0.00000000       0.20592944
Tc       0.00000000       0.00000000       5.04646465       0.00000000       0.00000000      -0.20592944
2
Properties=species:S:1:pos:R:3:forces:R:3 energy=-7.017184349812683 pbc="F F F"
Tc       0.00000000       0.00000000       0.00000000       0.00000000       0.00000000       0.18141763
Tc       0.00000000       0.00000000       5.10606061       0.00000000       0.00000000      -0.18141763
2
Properties=species:S:1:pos:R:3:forces:R:3 energy=-7.007044921011032 pbc="F F F"
Tc       0.00000000       0.00000000       0.00000000       0.00000000       0.00000000       0.15946318
Tc       0.00000000       0.00000000       5.16565657       0.00000000       0.00000000      -0.15946318
2
Properties=species:S:1:pos:R:3:forces:R:3 energy=-6.998070450004718 pbc="F F F"
Tc       0.00000000       0.00000000       0.00000000       0.00000000       0.00000000       0.14282332
Tc       0.00000000       0.00000000       5.22525253       0.00000000       0.00000000      -0.14282332
2
Properties=species:S:1:pos:R:3:forces:R:3 energy=-6.989884384006701 pbc="F F F"
Tc       0.00000000       0.00000000       0.00000000       0.00000000       0.00000000       0.13293318
Tc       0.00000000       0.00000000       5.28484848       0.00000000       0.00000000      -0.13293318
2
Properties=species:S:1:pos:R:3:forces:R:3 energy=-6.982147976741642 pbc="F F F"
Tc       0.00000000       0.00000000       0.00000000       0.00000000       0.00000000       0.12685582
Tc       0.00000000       0.00000000       5.34444444       0.00000000       0.00000000      -0.12685582
2
Properties=species:S:1:pos:R:3:forces:R:3 energy=-6.97480057635977 pbc="F F F"
Tc       0.00000000       0.00000000       0.00000000       0.00000000       0.00000000       0.11910121
Tc       0.00000000       0.00000000       5.40404040       0.00000000       0.00000000      -0.11910121
2
Properties=species:S:1:pos:R:3:forces:R:3 energy=-6.9680164233248165 pbc="F F F"
Tc       0.00000000       0.00000000       0.00000000       0.00000000       0.00000000       0.10830149
Tc       0.00000000       0.00000000       5.46363636       0.00000000       0.00000000      -0.10830149
2
Properties=species:S:1:pos:R:3:forces:R:3 energy=-6.961852763598195 pbc="F F F"
Tc       0.00000000       0.00000000       0.00000000       0.00000000       0.00000000       0.09961419
Tc       0.00000000       0.00000000       5.52323232       0.00000000       0.00000000      -0.09961419
2
Properties=species:S:1:pos:R:3:forces:R:3 energy=-6.955965805748169 pbc="F F F"
Tc       0.00000000       0.00000000       0.00000000       0.00000000       0.00000000       0.09970025
Tc       0.00000000       0.00000000       5.58282828       0.00000000       0.00000000      -0.09970025
2
Properties=species:S:1:pos:R:3:forces:R:3 energy=-6.949791931741264 pbc="F F F"
Tc       0.00000000       0.00000000       0.00000000       0.00000000       0.00000000       0.10831743
Tc       0.00000000       0.00000000       5.64242424       0.00000000       0.00000000      -0.10831743
2
Properties=species:S:1:pos:R:3:forces:R:3 energy=-6.9430900096787855 pbc="F F F"
Tc       0.00000000       0.00000000       0.00000000       0.00000000       0.00000000       0.11488914
Tc       0.00000000       0.00000000       5.70202020       0.00000000       0.00000000      -0.11488914
2
Properties=species:S:1:pos:R:3:forces:R:3 energy=-6.936397777642369 pbc="F F F"
Tc       0.00000000       0.00000000       0.00000000       0.00000000       0.00000000       0.10695216
Tc       0.00000000       0.00000000       5.76161616       0.00000000       0.00000000      -0.10695216
2
Properties=species:S:1:pos:R:3:forces:R:3 energy=-6.930674263342664 pbc="F F F"
Tc       0.00000000       0.00000000       0.00000000       0.00000000       0.00000000       0.08283874
Tc       0.00000000       0.00000000       5.82121212       0.00000000       0.00000000      -0.08283874
2
Properties=species:S:1:pos:R:3:forces:R:3 energy=-6.926659493186174 pbc="F F F"
Tc       0.00000000       0.00000000       0.00000000       0.00000000       0.00000000       0.05224802
Tc       0.00000000       0.00000000       5.88080808       0.00000000       0.00000000      -0.05224802
2
Properties=species:S:1:pos:R:3:forces:R:3 energy=-6.924311342839686 pbc="F F F"
Tc       0.00000000       0.00000000       0.00000000       0.00000000       0.00000000       0.02797961
Tc       0.00000000       0.00000000       5.94040404       0.00000000       0.00000000      -0.02797961
2
Properties=species:S:1:pos:R:3:forces:R:3 energy=-6.923024999532464 pbc="F F F"
Tc       0.00000000       0.00000000       0.00000000       0.00000000       0.00000000       0.01818999
Tc       0.00000000       0.00000000       6.00000000       0.00000000       0.00000000      -0.01818999
