2
Properties=species:S:1:pos:R:3:forces:R:3 energy=2658.429083378832 pbc="F F F"
Ti       0.00000000       0.00000000       0.00000000       0.00000000       0.00000000  -40407.61718750
Ti       0.00000000       0.00000000       0.18000000       0.00000000       0.00000000   40407.61718750
2
Properties=species:S:1:pos:R:3:forces:R:3 energy=1176.9403138475818 pbc="F F F"
Ti       0.00000000       0.00000000       0.00000000       0.00000000       0.00000000  -14969.61328125
Ti       0.00000000       0.00000000       0.23878788       0.00000000       0.00000000   14969.61328125
2
Properties=species:S:1:pos:R:3:forces:R:3 energy=585.8825745929372 pbc="F F F"
Ti       0.00000000       0.00000000       0.00000000       0.00000000       0.00000000   -6511.80371094
Ti       0.00000000       0.00000000       0.29757576       0.00000000       0.00000000    6511.80371094
2
Properties=species:S:1:pos:R:3:forces:R:3 energy=315.840551887859 pbc="F F F"
Ti       0.00000000       0.00000000       0.00000000       0.00000000       0.00000000   -3144.63525391
Ti       0.00000000       0.00000000       0.35636364       0.00000000       0.00000000    3144.63525391
2
Properties=species:S:1:pos:R:3:forces:R:3 energy=181.0189729147025 pbc="F F F"
Ti       0.00000000       0.00000000       0.00000000       0.00000000       0.00000000   -1629.08813477
Ti       0.00000000       0.00000000       0.41515152       0.00000000       0.00000000    1629.08813477
2
Properties=species:S:1:pos:R:3:forces:R:3 energy=109.52835707631156 pbc="F F F"
Ti       0.00000000       0.00000000       0.00000000       0.00000000       0.00000000    -886.25268555
Ti       0.00000000       0.00000000       0.47393939       0.00000000       0.00000000     886.25268555
2
Properties=species:S:1:pos:R:3:forces:R:3 energy=69.98419053671273 pbc="F F F"
Ti       0.00000000       0.00000000       0.00000000       0.00000000       0.00000000    -499.13464355
Ti       0.00000000       0.00000000       0.53272727       0.00000000       0.00000000     499.13464355
2
Properties=species:S:1:pos:R:3:forces:R:3 energy=47.45150243068964 pbc="F F F"
Ti       0.00000000       0.00000000       0.00000000       0.00000000       0.00000000    -287.96658325
Ti       0.00000000       0.00000000       0.59151515       0.00000000       0.00000000     287.96658325
2
Properties=species:S:1:pos:R:3:forces:R:3 energy=34.34298960929247 pbc="F F F"
Ti       0.00000000       0.00000000       0.00000000       0.00000000       0.00000000    -169.11604309
Ti       0.00000000       0.00000000       0.65030303       0.00000000       0.00000000     169.11604309
2
Properties=species:S:1:pos:R:3:forces:R:3 energy=26.57636144211409 pbc="F F F"
Ti       0.00000000       0.00000000       0.00000000       0.00000000       0.00000000    -101.44682312
Ti       0.00000000       0.00000000       0.70909091       0.00000000       0.00000000     101.44682312
2
Properties=species:S:1:pos:R:3:forces:R:3 energy=21.8442334350199 pbc="F F F"
Ti       0.00000000       0.00000000       0.00000000       0.00000000       0.00000000     -63.20303726
Ti       0.00000000       0.00000000       0.76787879       0.00000000       0.00000000      63.20303726
2
Properties=species:S:1:pos:R:3:forces:R:3 energy=18.81627954570148 pbc="F F F"
Ti       0.00000000       0.00000000       0.00000000       0.00000000       0.00000000     -41.93781662
Ti       0.00000000       0.00000000       0.82666667       0.00000000       0.00000000      41.93781662
2
Properties=species:S:1:pos:R:3:forces:R:3 energy=16.713649225074565 pbc="F F F"
Ti       0.00000000       0.00000000       0.00000000       0.00000000       0.00000000     -30.98003960
Ti       0.00000000       0.00000000       0.88545455       0.00000000       0.00000000      30.98003960
2
Properties=species:S:1:pos:R:3:forces:R:3 energy=15.036222351356972 pbc="F F F"
Ti       0.00000000       0.00000000       0.00000000       0.00000000       0.00000000     -27.06648445
Ti       0.00000000       0.00000000       0.94424242       0.00000000       0.00000000      27.06648445
2
Properties=species:S:1:pos:R:3:forces:R:3 energy=13.436893933149626 pbc="F F F"
Ti       0.00000000       0.00000000       0.00000000       0.00000000       0.00000000     -27.97345924
Ti       0.00000000       0.00000000       1.00303030       0.00000000       0.00000000      27.97345924
2
Properties=species:S:1:pos:R:3:forces:R:3 energy=11.693953806556092 pbc="F F F"
Ti       0.00000000       0.00000000       0.00000000       0.00000000       0.00000000     -31.59612656
Ti       0.00000000       0.00000000       1.06181818       0.00000000       0.00000000      31.59612656
2
Properties=species:S:1:pos:R:3:forces:R:3 energy=9.710445772377586 pbc="F F F"
Ti       0.00000000       0.00000000       0.00000000       0.00000000       0.00000000     -35.82199097
Ti       0.00000000       0.00000000       1.12060606       0.00000000       0.00000000      35.82199097
2
Properties=species:S:1:pos:R:3:forces:R:3 energy=7.503308586677048 pbc="F F F"
Ti       0.00000000       0.00000000       0.00000000       0.00000000       0.00000000     -39.00418091
Ti       0.00000000       0.00000000       1.17939394       0.00000000       0.00000000      39.00418091
2
Properties=species:S:1:pos:R:3:forces:R:3 energy=5.157435545770098 pbc="F F F"
Ti       0.00000000       0.00000000       0.00000000       0.00000000       0.00000000     -40.54567719
Ti       0.00000000       0.00000000       1.23818182       0.00000000       0.00000000      40.54567719
2
Properties=species:S:1:pos:R:3:forces:R:3 energy=2.75981567062524 pbc="F F F"
Ti       0.00000000       0.00000000       0.00000000       0.00000000       0.00000000     -40.86522675
Ti       0.00000000       0.00000000       1.29696970       0.00000000       0.00000000      40.86522675
2
Properties=species:S:1:pos:R:3:forces:R:3 energy=0.37510723075863095 pbc="F F F"
Ti       0.00000000       0.00000000       0.00000000       0.00000000       0.00000000     -39.97504044
Ti       0.00000000       0.00000000       1.35575758       0.00000000       0.00000000      39.97504044
2
Properties=species:S:1:pos:R:3:forces:R:3 energy=-1.8908484967997523 pbc="F F F"
Ti       0.00000000       0.00000000       0.00000000       0.00000000       0.00000000     -36.60789490
Ti       0.00000000       0.00000000       1.41454545       0.00000000       0.00000000      36.60789490
2
Properties=species:S:1:pos:R:3:forces:R:3 energy=-3.87458394643224 pbc="F F F"
Ti       0.00000000       0.00000000       0.00000000       0.00000000       0.00000000     -30.53588486
Ti       0.00000000       0.00000000       1.47333333       0.00000000       0.00000000      30.53588486
2
Properties=species:S:1:pos:R:3:forces:R:3 energy=-5.460397297003975 pbc="F F F"
Ti       0.00000000       0.00000000       0.00000000       0.00000000       0.00000000     -23.40005875
Ti       0.00000000       0.00000000       1.53212121       0.00000000       0.00000000      23.40005875
2
Properties=species:S:1:pos:R:3:forces:R:3 energy=-6.638389686375022 pbc="F F F"
Ti       0.00000000       0.00000000       0.00000000       0.00000000       0.00000000     -16.86395645
Ti       0.00000000       0.00000000       1.59090909       0.00000000       0.00000000      16.86395645
2
Properties=species:S:1:pos:R:3:forces:R:3 energy=-7.467895714265944 pbc="F F F"
Ti       0.00000000       0.00000000       0.00000000       0.00000000       0.00000000     -11.55917263
Ti       0.00000000       0.00000000       1.64969697       0.00000000       0.00000000      11.55917263
2
Properties=species:S:1:pos:R:3:forces:R:3 energy=-8.01816136551225 pbc="F F F"
Ti       0.00000000       0.00000000       0.00000000       0.00000000       0.00000000      -7.31201506
Ti       0.00000000       0.00000000       1.70848485       0.00000000       0.00000000       7.31201506
2
Properties=species:S:1:pos:R:3:forces:R:3 energy=-8.343877367100275 pbc="F F F"
Ti       0.00000000       0.00000000       0.00000000       0.00000000       0.00000000      -3.90412426
Ti       0.00000000       0.00000000       1.76727273       0.00000000       0.00000000       3.90412426
2
Properties=species:S:1:pos:R:3:forces:R:3 energy=-8.493606042992278 pbc="F F F"
Ti       0.00000000       0.00000000       0.00000000       0.00000000       0.00000000      -1.33418238
Ti       0.00000000       0.00000000       1.82606061       0.00000000       0.00000000       1.33418238
2
Properties=species:S:1:pos:R:3:forces:R:3 energy=-8.517759615577322 pbc="F F F"
Ti       0.00000000       0.00000000       0.00000000       0.00000000       0.00000000       0.37226784
Ti       0.00000000       0.00000000       1.88484848       0.00000000       0.00000000      -0.37226784
2
Properties=species:S:1:pos:R:3:forces:R:3 energy=-8.465038689929713 pbc="F F F"
Ti       0.00000000       0.00000000       0.00000000       0.00000000       0.00000000       1.30593729
Ti       0.00000000       0.00000000       1.94363636       0.00000000       0.00000000      -1.30593729
2
Properties=species:S:1:pos:R:3:forces:R:3 energy=-8.375820965135302 pbc="F F F"
Ti       0.00000000       0.00000000       0.00000000       0.00000000       0.00000000       1.64814138
Ti       0.00000000       0.00000000       2.00242424       0.00000000       0.00000000      -1.64814138
2
Properties=species:S:1:pos:R:3:forces:R:3 energy=-8.278651855359106 pbc="F F F"
Ti       0.00000000       0.00000000       0.00000000       0.00000000       0.00000000       1.61299229
Ti       0.00000000       0.00000000       2.06121212       0.00000000       0.00000000      -1.61299229
2
Properties=species:S:1:pos:R:3:forces:R:3 energy=-8.189355997843888 pbc="F F F"
Ti       0.00000000       0.00000000       0.00000000       0.00000000       0.00000000       1.41437817
Ti       0.00000000       0.00000000       2.12000000       0.00000000       0.00000000      -1.41437817
2
Properties=species:S:1:pos:R:3:forces:R:3 energy=-8.111963999270491 pbc="F F F"
Ti       0.00000000       0.00000000       0.00000000       0.00000000       0.00000000       1.23337913
Ti       0.00000000       0.00000000       2.17878788       0.00000000       0.00000000      -1.23337913
2
Properties=species:S:1:pos:R:3:forces:R:3 energy=-8.041710801664188 pbc="F F F"
Ti       0.00000000       0.00000000       0.00000000       0.00000000       0.00000000       1.18367720
Ti       0.00000000       0.00000000       2.23757576       0.00000000       0.00000000      -1.18367720
2
Properties=species:S:1:pos:R:3:forces:R:3 energy=-7.969542214540349 pbc="F F F"
Ti       0.00000000       0.00000000       0.00000000       0.00000000       0.00000000       1.29754508
Ti       0.00000000       0.00000000       2.29636364       0.00000000       0.00000000      -1.29754508
2
Properties=species:S:1:pos:R:3:forces:R:3 energy=-7.886603252394647 pbc="F F F"
Ti       0.00000000       0.00000000       0.00000000       0.00000000       0.00000000       1.54018486
Ti       0.00000000       0.00000000       2.35515152       0.00000000       0.00000000      -1.54018486
2
Properties=species:S:1:pos:R:3:forces:R:3 energy=-7.787363113738731 pbc="F F F"
Ti       0.00000000       0.00000000       0.00000000       0.00000000       0.00000000       1.83812869
Ti       0.00000000       0.00000000       2.41393939       0.00000000       0.00000000      -1.83812869
2
Properties=species:S:1:pos:R:3:forces:R:3 energy=-7.67105296541493 pbc="F F F"
Ti       0.00000000       0.00000000       0.00000000       0.00000000       0.00000000       2.10749269
Ti       0.00000000       0.00000000       2.47272727       0.00000000       0.00000000      -2.10749269
2
Properties=species:S:1:pos:R:3:forces:R:3 energy=-7.541530570474869 pbc="F F F"
Ti       0.00000000       0.00000000       0.00000000       0.00000000       0.00000000       2.27810359
Ti       0.00000000       0.00000000       2.53151515       0.00000000       0.00000000      -2.27810359
2
Properties=species:S:1:pos:R:3:forces:R:3 energy=-7.405908104753473 pbc="F F F"
Ti       0.00000000       0.00000000       0.00000000       0.00000000       0.00000000       2.31213665
Ti       0.00000000       0.00000000       2.59030303       0.00000000       0.00000000      -2.31213665
2
Properties=species:S:1:pos:R:3:forces:R:3 energy=-7.272326279837172 pbc="F F F"
Ti       0.00000000       0.00000000       0.00000000       0.00000000       0.00000000       2.21220493
Ti       0.00000000       0.00000000       2.64909091       0.00000000       0.00000000      -2.21220493
2
Properties=species:S:1:pos:R:3:forces:R:3 energy=-7.147747956682688 pbc="F F F"
Ti       0.00000000       0.00000000       0.00000000       0.00000000       0.00000000       2.01355696
Ti       0.00000000       0.00000000       2.70787879       0.00000000       0.00000000      -2.01355696
2
Properties=species:S:1:pos:R:3:forces:R:3 energy=-7.036572840729812 pbc="F F F"
Ti       0.00000000       0.00000000       0.00000000       0.00000000       0.00000000       1.76403534
Ti       0.00000000       0.00000000       2.76666667       0.00000000       0.00000000      -1.76403534
2
Properties=species:S:1:pos:R:3:forces:R:3 energy=-6.940498968223383 pbc="F F F"
Ti       0.00000000       0.00000000       0.00000000       0.00000000       0.00000000       1.50612938
Ti       0.00000000       0.00000000       2.82545455       0.00000000       0.00000000      -1.50612938
2
Properties=species:S:1:pos:R:3:forces:R:3 energy=-6.858916663258055 pbc="F F F"
Ti       0.00000000       0.00000000       0.00000000       0.00000000       0.00000000       1.27792740
Ti       0.00000000       0.00000000       2.88424242       0.00000000       0.00000000      -1.27792740
2
Properties=species:S:1:pos:R:3:forces:R:3 energy=-6.788727546250781 pbc="F F F"
Ti       0.00000000       0.00000000       0.00000000       0.00000000       0.00000000       1.12690115
Ti       0.00000000       0.00000000       2.94303030       0.00000000       0.00000000      -1.12690115
2
Properties=species:S:1:pos:R:3:forces:R:3 energy=-6.724272027852344 pbc="F F F"
Ti       0.00000000       0.00000000       0.00000000       0.00000000       0.00000000       1.08233392
Ti       0.00000000       0.00000000       3.00181818       0.00000000       0.00000000      -1.08233392
2
Properties=species:S:1:pos:R:3:forces:R:3 energy=-6.660249898258381 pbc="F F F"
Ti       0.00000000       0.00000000       0.00000000       0.00000000       0.00000000       1.09917915
Ti       0.00000000       0.00000000       3.06060606       0.00000000       0.00000000      -1.09917915
2
Properties=species:S:1:pos:R:3:forces:R:3 energy=-6.5952447368920835 pbc="F F F"
Ti       0.00000000       0.00000000       0.00000000       0.00000000       0.00000000       1.10757017
Ti       0.00000000       0.00000000       3.11939394       0.00000000       0.00000000      -1.10757017
2
Properties=species:S:1:pos:R:3:forces:R:3 energy=-6.530606672637734 pbc="F F F"
Ti       0.00000000       0.00000000       0.00000000       0.00000000       0.00000000       1.08744490
Ti       0.00000000       0.00000000       3.17818182       0.00000000       0.00000000      -1.08744490
2
Properties=species:S:1:pos:R:3:forces:R:3 energy=-6.46768564032924 pbc="F F F"
Ti       0.00000000       0.00000000       0.00000000       0.00000000       0.00000000       1.05198371
Ti       0.00000000       0.00000000       3.23696970       0.00000000       0.00000000      -1.05198371
2
Properties=species:S:1:pos:R:3:forces:R:3 energy=-6.4069414330372485 pbc="F F F"
Ti       0.00000000       0.00000000       0.00000000       0.00000000       0.00000000       1.01508307
Ti       0.00000000       0.00000000       3.29575758       0.00000000       0.00000000      -1.01508307
2
Properties=species:S:1:pos:R:3:forces:R:3 energy=-6.348233239029924 pbc="F F F"
Ti       0.00000000       0.00000000       0.00000000       0.00000000       0.00000000       0.98331195
Ti       0.00000000       0.00000000       3.35454545       0.00000000       0.00000000      -0.98331195
2
Properties=species:S:1:pos:R:3:forces:R:3 energy=-6.291198941045368 pbc="F F F"
Ti       0.00000000       0.00000000       0.00000000       0.00000000       0.00000000       0.95805150
Ti       0.00000000       0.00000000       3.41333333       0.00000000       0.00000000      -0.95805150
2
Properties=species:S:1:pos:R:3:forces:R:3 energy=-6.235483891212631 pbc="F F F"
Ti       0.00000000       0.00000000       0.00000000       0.00000000       0.00000000       0.93814528
Ti       0.00000000       0.00000000       3.47212121       0.00000000       0.00000000      -0.93814528
2
Properties=species:S:1:pos:R:3:forces:R:3 energy=-6.180831855316864 pbc="F F F"
Ti       0.00000000       0.00000000       0.00000000       0.00000000       0.00000000       0.92151332
Ti       0.00000000       0.00000000       3.53090909       0.00000000       0.00000000      -0.92151332
2
Properties=species:S:1:pos:R:3:forces:R:3 energy=-6.127113117652075 pbc="F F F"
Ti       0.00000000       0.00000000       0.00000000       0.00000000       0.00000000       0.90607113
Ti       0.00000000       0.00000000       3.58969697       0.00000000       0.00000000      -0.90607113
2
Properties=species:S:1:pos:R:3:forces:R:3 energy=-6.074307510329308 pbc="F F F"
Ti       0.00000000       0.00000000       0.00000000       0.00000000       0.00000000       0.89027578
Ti       0.00000000       0.00000000       3.64848485       0.00000000       0.00000000      -0.89027578
2
Properties=species:S:1:pos:R:3:forces:R:3 energy=-6.022460478918112 pbc="F F F"
Ti       0.00000000       0.00000000       0.00000000       0.00000000       0.00000000       0.87340558
Ti       0.00000000       0.00000000       3.70727273       0.00000000       0.00000000      -0.87340558
2
Properties=species:S:1:pos:R:3:forces:R:3 energy=-5.971634939236655 pbc="F F F"
Ti       0.00000000       0.00000000       0.00000000       0.00000000       0.00000000       0.85557622
Ti       0.00000000       0.00000000       3.76606061       0.00000000       0.00000000      -0.85557622
2
Properties=species:S:1:pos:R:3:forces:R:3 energy=-5.921870738193801 pbc="F F F"
Ti       0.00000000       0.00000000       0.00000000       0.00000000       0.00000000       0.83746034
Ti       0.00000000       0.00000000       3.82484848       0.00000000       0.00000000      -0.83746034
2
Properties=species:S:1:pos:R:3:forces:R:3 energy=-5.873160124353941 pbc="F F F"
Ti       0.00000000       0.00000000       0.00000000       0.00000000       0.00000000       0.81979954
Ti       0.00000000       0.00000000       3.88363636       0.00000000       0.00000000      -0.81979954
2
Properties=species:S:1:pos:R:3:forces:R:3 energy=-5.825465855077717 pbc="F F F"
Ti       0.00000000       0.00000000       0.00000000       0.00000000       0.00000000       0.80295128
Ti       0.00000000       0.00000000       3.94242424       0.00000000       0.00000000      -0.80295128
2
Properties=species:S:1:pos:R:3:forces:R:3 energy=-5.778743696567479 pbc="F F F"
Ti       0.00000000       0.00000000       0.00000000       0.00000000       0.00000000       0.78660232
Ti       0.00000000       0.00000000       4.00121212       0.00000000       0.00000000      -0.78660232
2
Properties=species:S:1:pos:R:3:forces:R:3 energy=-5.73298992218558 pbc="F F F"
Ti       0.00000000       0.00000000       0.00000000       0.00000000       0.00000000       0.76975614
Ti       0.00000000       0.00000000       4.06000000       0.00000000       0.00000000      -0.76975614
2
Properties=species:S:1:pos:R:3:forces:R:3 energy=-5.6882767647946775 pbc="F F F"
Ti       0.00000000       0.00000000       0.00000000       0.00000000       0.00000000       0.75097352
Ti       0.00000000       0.00000000       4.11878788       0.00000000       0.00000000      -0.75097352
2
Properties=species:S:1:pos:R:3:forces:R:3 energy=-5.644761850466747 pbc="F F F"
Ti       0.00000000       0.00000000       0.00000000       0.00000000       0.00000000       0.72873634
Ti       0.00000000       0.00000000       4.17757576       0.00000000       0.00000000      -0.72873634
2
Properties=species:S:1:pos:R:3:forces:R:3 energy=-5.602685777947265 pbc="F F F"
Ti       0.00000000       0.00000000       0.00000000       0.00000000       0.00000000       0.70185834
Ti       0.00000000       0.00000000       4.23636364       0.00000000       0.00000000      -0.70185834
2
Properties=species:S:1:pos:R:3:forces:R:3 energy=-5.562341173261243 pbc="F F F"
Ti       0.00000000       0.00000000       0.00000000       0.00000000       0.00000000       0.66979402
Ti       0.00000000       0.00000000       4.29515152       0.00000000       0.00000000      -0.66979402
2
Properties=species:S:1:pos:R:3:forces:R:3 energy=-5.524031155859143 pbc="F F F"
Ti       0.00000000       0.00000000       0.00000000       0.00000000       0.00000000       0.63283437
Ti       0.00000000       0.00000000       4.35393939       0.00000000       0.00000000      -0.63283437
2
Properties=species:S:1:pos:R:3:forces:R:3 energy=-5.488010579940472 pbc="F F F"
Ti       0.00000000       0.00000000       0.00000000       0.00000000       0.00000000       0.59209806
Ti       0.00000000       0.00000000       4.41272727       0.00000000       0.00000000      -0.59209806
2
Properties=species:S:1:pos:R:3:forces:R:3 energy=-5.454453221388877 pbc="F F F"
Ti       0.00000000       0.00000000       0.00000000       0.00000000       0.00000000       0.54938328
Ti       0.00000000       0.00000000       4.47151515       0.00000000       0.00000000      -0.54938328
2
Properties=species:S:1:pos:R:3:forces:R:3 energy=-5.423412119588482 pbc="F F F"
Ti       0.00000000       0.00000000       0.00000000       0.00000000       0.00000000       0.50687116
Ti       0.00000000       0.00000000       4.53030303       0.00000000       0.00000000      -0.50687116
2
Properties=species:S:1:pos:R:3:forces:R:3 energy=-5.3948105808743225 pbc="F F F"
Ti       0.00000000       0.00000000       0.00000000       0.00000000       0.00000000       0.46676531
Ti       0.00000000       0.00000000       4.58909091       0.00000000       0.00000000      -0.46676531
2
Properties=species:S:1:pos:R:3:forces:R:3 energy=-5.368448626169363 pbc="F F F"
Ti       0.00000000       0.00000000       0.00000000       0.00000000       0.00000000       0.43093723
Ti       0.00000000       0.00000000       4.64787879       0.00000000       0.00000000      -0.43093723
2
Properties=species:S:1:pos:R:3:forces:R:3 energy=-5.344033554575974 pbc="F F F"
Ti       0.00000000       0.00000000       0.00000000       0.00000000       0.00000000       0.40062588
Ti       0.00000000       0.00000000       4.70666667       0.00000000       0.00000000      -0.40062588
2
Properties=species:S:1:pos:R:3:forces:R:3 energy=-5.321228078586327 pbc="F F F"
Ti       0.00000000       0.00000000       0.00000000       0.00000000       0.00000000       0.37623385
Ti       0.00000000       0.00000000       4.76545455       0.00000000       0.00000000      -0.37623385
2
Properties=species:S:1:pos:R:3:forces:R:3 energy=-5.299691593503256 pbc="F F F"
Ti       0.00000000       0.00000000       0.00000000       0.00000000       0.00000000       0.35719424
Ti       0.00000000       0.00000000       4.82424242       0.00000000       0.00000000      -0.35719424
2
Properties=species:S:1:pos:R:3:forces:R:3 energy=-5.279155779136504 pbc="F F F"
Ti       0.00000000       0.00000000       0.00000000       0.00000000       0.00000000       0.34198225
Ti       0.00000000       0.00000000       4.88303030       0.00000000       0.00000000      -0.34198225
2
Properties=species:S:1:pos:R:3:forces:R:3 energy=-5.259453490464403 pbc="F F F"
Ti       0.00000000       0.00000000       0.00000000       0.00000000       0.00000000       0.32827976
Ti       0.00000000       0.00000000       4.94181818       0.00000000       0.00000000      -0.32827976
2
Properties=species:S:1:pos:R:3:forces:R:3 energy=-5.240576836732506 pbc="F F F"
Ti       0.00000000       0.00000000       0.00000000       0.00000000       0.00000000       0.31358954
Ti       0.00000000       0.00000000       5.00060606       0.00000000       0.00000000      -0.31358954
2
Properties=species:S:1:pos:R:3:forces:R:3 energy=-5.2226324284528065 pbc="F F F"
Ti       0.00000000       0.00000000       0.00000000       0.00000000       0.00000000       0.29646400
Ti       0.00000000       0.00000000       5.05939394       0.00000000       0.00000000      -0.29646400
2
Properties=species:S:1:pos:R:3:forces:R:3 energy=-5.205739513313758 pbc="F F F"
Ti       0.00000000       0.00000000       0.00000000       0.00000000       0.00000000       0.27849206
Ti       0.00000000       0.00000000       5.11818182       0.00000000       0.00000000      -0.27849206
2
Properties=species:S:1:pos:R:3:forces:R:3 energy=-5.189792129472996 pbc="F F F"
Ti       0.00000000       0.00000000       0.00000000       0.00000000       0.00000000       0.26551980
Ti       0.00000000       0.00000000       5.17696970       0.00000000       0.00000000      -0.26551980
2
Properties=species:S:1:pos:R:3:forces:R:3 energy=-5.174287062377889 pbc="F F F"
Ti       0.00000000       0.00000000       0.00000000       0.00000000       0.00000000       0.26419690
Ti       0.00000000       0.00000000       5.23575758       0.00000000       0.00000000      -0.26419690
2
Properties=species:S:1:pos:R:3:forces:R:3 energy=-5.158533459878 pbc="F F F"
Ti       0.00000000       0.00000000       0.00000000       0.00000000       0.00000000       0.27236101
Ti       0.00000000       0.00000000       5.29454545       0.00000000       0.00000000      -0.27236101
2
Properties=species:S:1:pos:R:3:forces:R:3 energy=-5.142375996125269 pbc="F F F"
Ti       0.00000000       0.00000000       0.00000000       0.00000000       0.00000000       0.27480614
Ti       0.00000000       0.00000000       5.35333333       0.00000000       0.00000000      -0.27480614
2
Properties=species:S:1:pos:R:3:forces:R:3 energy=-5.126619205959659 pbc="F F F"
Ti       0.00000000       0.00000000       0.00000000       0.00000000       0.00000000       0.25779325
Ti       0.00000000       0.00000000       5.41212121       0.00000000       0.00000000      -0.25779325
2
Properties=species:S:1:pos:R:3:forces:R:3 energy=-5.112352327842653 pbc="F F F"
Ti       0.00000000       0.00000000       0.00000000       0.00000000       0.00000000       0.22675879
Ti       0.00000000       0.00000000       5.47090909       0.00000000       0.00000000      -0.22675879
2
Properties=species:S:1:pos:R:3:forces:R:3 energy=-5.099806960417306 pbc="F F F"
Ti       0.00000000       0.00000000       0.00000000       0.00000000       0.00000000       0.20321786
Ti       0.00000000       0.00000000       5.52969697       0.00000000       0.00000000      -0.20321786
2
Properties=species:S:1:pos:R:3:forces:R:3 energy=-5.087947071251208 pbc="F F F"
Ti       0.00000000       0.00000000       0.00000000       0.00000000       0.00000000       0.20489162
Ti       0.00000000       0.00000000       5.58848485       0.00000000       0.00000000      -0.20489162
2
Properties=species:S:1:pos:R:3:forces:R:3 energy=-5.075341643682043 pbc="F F F"
Ti       0.00000000       0.00000000       0.00000000       0.00000000       0.00000000       0.22512111
Ti       0.00000000       0.00000000       5.64727273       0.00000000       0.00000000      -0.22512111
2
Properties=species:S:1:pos:R:3:forces:R:3 energy=-5.0617125852677765 pbc="F F F"
Ti       0.00000000       0.00000000       0.00000000       0.00000000       0.00000000       0.23369065
Ti       0.00000000       0.00000000       5.70606061       0.00000000       0.00000000      -0.23369065
2
Properties=species:S:1:pos:R:3:forces:R:3 energy=-5.048552863966976 pbc="F F F"
Ti       0.00000000       0.00000000       0.00000000       0.00000000       0.00000000       0.20690471
Ti       0.00000000       0.00000000       5.76484848       0.00000000       0.00000000      -0.20690471
2
Properties=species:S:1:pos:R:3:forces:R:3 energy=-5.037964948660538 pbc="F F F"
Ti       0.00000000       0.00000000       0.00000000       0.00000000       0.00000000       0.15027852
Ti       0.00000000       0.00000000       5.82363636       0.00000000       0.00000000      -0.15027852
2
Properties=species:S:1:pos:R:3:forces:R:3 energy=-5.031026258890698 pbc="F F F"
Ti       0.00000000       0.00000000       0.00000000       0.00000000       0.00000000       0.08759850
Ti       0.00000000       0.00000000       5.88242424       0.00000000       0.00000000      -0.08759850
2
Properties=species:S:1:pos:R:3:forces:R:3 energy=-5.0273525435830475 pbc="F F F"
Ti       0.00000000       0.00000000       0.00000000       0.00000000       0.00000000       0.04096331
Ti       0.00000000       0.00000000       5.94121212       0.00000000       0.00000000      -0.04096331
2
Properties=species:S:1:pos:R:3:forces:R:3 energy=-5.025633318490041 pbc="F F F"
Ti       0.00000000       0.00000000       0.00000000       0.00000000       0.00000000       0.02308579
Ti       0.00000000       0.00000000       6.00000000       0.00000000       0.00000000      -0.02308579
