2
Properties=species:S:1:pos:R:3:forces:R:3 energy=16734.49392460344 pbc="F F F"
Tl       0.00000000       0.00000000       0.00000000       0.00000000       0.00000000 -296450.68750000
Tl       0.00000000       0.00000000       0.18000000       0.00000000       0.00000000  296450.68750000
2
Properties=species:S:1:pos:R:3:forces:R:3 energy=6421.61404179094 pbc="F F F"
Tl       0.00000000       0.00000000       0.00000000       0.00000000       0.00000000  -96934.64843750
Tl       0.00000000       0.00000000       0.23878788       0.00000000       0.00000000   96934.64843750
2
Properties=species:S:1:pos:R:3:forces:R:3 energy=2789.3188757753155 pbc="F F F"
Tl       0.00000000       0.00000000       0.00000000       0.00000000       0.00000000  -37263.95703125
Tl       0.00000000       0.00000000       0.29757576       0.00000000       0.00000000   37263.95703125
2
Properties=species:S:1:pos:R:3:forces:R:3 energy=1326.9508337831278 pbc="F F F"
Tl       0.00000000       0.00000000       0.00000000       0.00000000       0.00000000  -15845.50195312
Tl       0.00000000       0.00000000       0.35636364       0.00000000       0.00000000   15845.50195312
2
Properties=species:S:1:pos:R:3:forces:R:3 energy=684.2489905245769 pbc="F F F"
Tl       0.00000000       0.00000000       0.00000000       0.00000000       0.00000000   -7245.53759766
Tl       0.00000000       0.00000000       0.41515152       0.00000000       0.00000000    7245.53759766
2
Properties=species:S:1:pos:R:3:forces:R:3 energy=382.5980505863385 pbc="F F F"
Tl       0.00000000       0.00000000       0.00000000       0.00000000       0.00000000   -3507.92114258
Tl       0.00000000       0.00000000       0.47393939       0.00000000       0.00000000    3507.92114258
2
Properties=species:S:1:pos:R:3:forces:R:3 energy=233.53861760927572 pbc="F F F"
Tl       0.00000000       0.00000000       0.00000000       0.00000000       0.00000000   -1773.74560547
Tl       0.00000000       0.00000000       0.53272727       0.00000000       0.00000000    1773.74560547
2
Properties=species:S:1:pos:R:3:forces:R:3 energy=157.19209052867328 pbc="F F F"
Tl       0.00000000       0.00000000       0.00000000       0.00000000       0.00000000    -919.29028320
Tl       0.00000000       0.00000000       0.59151515       0.00000000       0.00000000     919.29028320
2
Properties=species:S:1:pos:R:3:forces:R:3 energy=117.60194162823461 pbc="F F F"
Tl       0.00000000       0.00000000       0.00000000       0.00000000       0.00000000    -473.25592041
Tl       0.00000000       0.00000000       0.65030303       0.00000000       0.00000000     473.25592041
2
Properties=species:S:1:pos:R:3:forces:R:3 energy=97.78416211889721 pbc="F F F"
Tl       0.00000000       0.00000000       0.00000000       0.00000000       0.00000000    -222.44299316
Tl       0.00000000       0.00000000       0.70909091       0.00000000       0.00000000     222.44299316
2
Properties=species:S:1:pos:R:3:forces:R:3 energy=89.7745872857813 pbc="F F F"
Tl       0.00000000       0.00000000       0.00000000       0.00000000       0.00000000     -58.68952942
Tl       0.00000000       0.00000000       0.76787879       0.00000000       0.00000000      58.68952942
2
Properties=species:S:1:pos:R:3:forces:R:3 energy=90.23204587057407 pbc="F F F"
Tl       0.00000000       0.00000000       0.00000000       0.00000000       0.00000000      69.71804810
Tl       0.00000000       0.00000000       0.82666667       0.00000000       0.00000000     -69.71804810
2
Properties=species:S:1:pos:R:3:forces:R:3 energy=97.19593607297054 pbc="F F F"
Tl       0.00000000       0.00000000       0.00000000       0.00000000       0.00000000     157.99661255
Tl       0.00000000       0.00000000       0.88545455       0.00000000       0.00000000    -157.99661255
2
Properties=species:S:1:pos:R:3:forces:R:3 energy=107.62174800844325 pbc="F F F"
Tl       0.00000000       0.00000000       0.00000000       0.00000000       0.00000000     186.59249878
Tl       0.00000000       0.00000000       0.94424242       0.00000000       0.00000000    -186.59249878
2
Properties=species:S:1:pos:R:3:forces:R:3 energy=117.90223530657678 pbc="F F F"
Tl       0.00000000       0.00000000       0.00000000       0.00000000       0.00000000     151.91424561
Tl       0.00000000       0.00000000       1.00303030       0.00000000       0.00000000    -151.91424561
2
Properties=species:S:1:pos:R:3:forces:R:3 energy=124.1154314304759 pbc="F F F"
Tl       0.00000000       0.00000000       0.00000000       0.00000000       0.00000000      48.24058151
Tl       0.00000000       0.00000000       1.06181818       0.00000000       0.00000000     -48.24058151
2
Properties=species:S:1:pos:R:3:forces:R:3 energy=122.49121768260078 pbc="F F F"
Tl       0.00000000       0.00000000       0.00000000       0.00000000       0.00000000    -109.52477264
Tl       0.00000000       0.00000000       1.12060606       0.00000000       0.00000000     109.52477264
2
Properties=species:S:1:pos:R:3:forces:R:3 energy=111.04964413712214 pbc="F F F"
Tl       0.00000000       0.00000000       0.00000000       0.00000000       0.00000000    -278.40338135
Tl       0.00000000       0.00000000       1.17939394       0.00000000       0.00000000     278.40338135
2
Properties=species:S:1:pos:R:3:forces:R:3 energy=89.65119210059653 pbc="F F F"
Tl       0.00000000       0.00000000       0.00000000       0.00000000       0.00000000    -431.25961304
Tl       0.00000000       0.00000000       1.23818182       0.00000000       0.00000000     431.25961304
2
Properties=species:S:1:pos:R:3:forces:R:3 energy=68.23423897873761 pbc="F F F"
Tl       0.00000000       0.00000000       0.00000000       0.00000000       0.00000000    -245.25244141
Tl       0.00000000       0.00000000       1.29696970       0.00000000       0.00000000     245.25244141
2
Properties=species:S:1:pos:R:3:forces:R:3 energy=56.28371294383058 pbc="F F F"
Tl       0.00000000       0.00000000       0.00000000       0.00000000       0.00000000    -188.36964417
Tl       0.00000000       0.00000000       1.35575758       0.00000000       0.00000000     188.36964417
2
Properties=species:S:1:pos:R:3:forces:R:3 energy=45.90275203237042 pbc="F F F"
Tl       0.00000000       0.00000000       0.00000000       0.00000000       0.00000000    -164.61482239
Tl       0.00000000       0.00000000       1.41454545       0.00000000       0.00000000     164.61482239
2
Properties=species:S:1:pos:R:3:forces:R:3 energy=36.91051293226732 pbc="F F F"
Tl       0.00000000       0.00000000       0.00000000       0.00000000       0.00000000    -139.97047424
Tl       0.00000000       0.00000000       1.47333333       0.00000000       0.00000000     139.97047424
2
Properties=species:S:1:pos:R:3:forces:R:3 energy=29.652883854198592 pbc="F F F"
Tl       0.00000000       0.00000000       0.00000000       0.00000000       0.00000000    -106.10169220
Tl       0.00000000       0.00000000       1.53212121       0.00000000       0.00000000     106.10169220
2
Properties=species:S:1:pos:R:3:forces:R:3 energy=24.329966739280227 pbc="F F F"
Tl       0.00000000       0.00000000       0.00000000       0.00000000       0.00000000     -77.09940338
Tl       0.00000000       0.00000000       1.59090909       0.00000000       0.00000000      77.09940338
2
Properties=species:S:1:pos:R:3:forces:R:3 energy=20.328955337013895 pbc="F F F"
Tl       0.00000000       0.00000000       0.00000000       0.00000000       0.00000000     -60.84381104
Tl       0.00000000       0.00000000       1.64969697       0.00000000       0.00000000      60.84381104
2
Properties=species:S:1:pos:R:3:forces:R:3 energy=17.024956560293337 pbc="F F F"
Tl       0.00000000       0.00000000       0.00000000       0.00000000       0.00000000     -52.41110992
Tl       0.00000000       0.00000000       1.70848485       0.00000000       0.00000000      52.41110992
2
Properties=species:S:1:pos:R:3:forces:R:3 energy=14.09767997667636 pbc="F F F"
Tl       0.00000000       0.00000000       0.00000000       0.00000000       0.00000000     -47.54875946
Tl       0.00000000       0.00000000       1.76727273       0.00000000       0.00000000      47.54875946
2
Properties=species:S:1:pos:R:3:forces:R:3 energy=11.41363227357483 pbc="F F F"
Tl       0.00000000       0.00000000       0.00000000       0.00000000       0.00000000     -43.76367188
Tl       0.00000000       0.00000000       1.82606061       0.00000000       0.00000000      43.76367188
2
Properties=species:S:1:pos:R:3:forces:R:3 energy=8.96571063356779 pbc="F F F"
Tl       0.00000000       0.00000000       0.00000000       0.00000000       0.00000000     -39.34052277
Tl       0.00000000       0.00000000       1.88484848       0.00000000       0.00000000      39.34052277
2
Properties=species:S:1:pos:R:3:forces:R:3 energy=6.807675734107336 pbc="F F F"
Tl       0.00000000       0.00000000       0.00000000       0.00000000       0.00000000     -33.95176697
Tl       0.00000000       0.00000000       1.94363636       0.00000000       0.00000000      33.95176697
2
Properties=species:S:1:pos:R:3:forces:R:3 energy=4.981140864054204 pbc="F F F"
Tl       0.00000000       0.00000000       0.00000000       0.00000000       0.00000000     -28.18864441
Tl       0.00000000       0.00000000       2.00242424       0.00000000       0.00000000      28.18864441
2
Properties=species:S:1:pos:R:3:forces:R:3 energy=3.4871836207010363 pbc="F F F"
Tl       0.00000000       0.00000000       0.00000000       0.00000000       0.00000000     -22.73089600
Tl       0.00000000       0.00000000       2.06121212       0.00000000       0.00000000      22.73089600
2
Properties=species:S:1:pos:R:3:forces:R:3 energy=2.294476949665356 pbc="F F F"
Tl       0.00000000       0.00000000       0.00000000       0.00000000       0.00000000     -17.98179817
Tl       0.00000000       0.00000000       2.12000000       0.00000000       0.00000000      17.98179817
2
Properties=species:S:1:pos:R:3:forces:R:3 energy=1.356202091557336 pbc="F F F"
Tl       0.00000000       0.00000000       0.00000000       0.00000000       0.00000000     -14.08264828
Tl       0.00000000       0.00000000       2.17878788       0.00000000       0.00000000      14.08264828
2
Properties=species:S:1:pos:R:3:forces:R:3 energy=0.6222146236571513 pbc="F F F"
Tl       0.00000000       0.00000000       0.00000000       0.00000000       0.00000000     -11.02189350
Tl       0.00000000       0.00000000       2.23757576       0.00000000       0.00000000      11.02189350
2
Properties=species:S:1:pos:R:3:forces:R:3 energy=0.04572127518818314 pbc="F F F"
Tl       0.00000000       0.00000000       0.00000000       0.00000000       0.00000000      -8.70326900
Tl       0.00000000       0.00000000       2.29636364       0.00000000       0.00000000       8.70326900
2
Properties=species:S:1:pos:R:3:forces:R:3 energy=-0.4127025883285165 pbc="F F F"
Tl       0.00000000       0.00000000       0.00000000       0.00000000       0.00000000      -6.97730064
Tl       0.00000000       0.00000000       2.35515152       0.00000000       0.00000000       6.97730064
2
Properties=species:S:1:pos:R:3:forces:R:3 energy=-0.7828715171523123 pbc="F F F"
Tl       0.00000000       0.00000000       0.00000000       0.00000000       0.00000000      -5.67201090
Tl       0.00000000       0.00000000       2.41393939       0.00000000       0.00000000       5.67201090
2
Properties=species:S:1:pos:R:3:forces:R:3 energy=-1.0847577106935844 pbc="F F F"
Tl       0.00000000       0.00000000       0.00000000       0.00000000       0.00000000      -4.63173008
Tl       0.00000000       0.00000000       2.47272727       0.00000000       0.00000000       4.63173008
2
Properties=species:S:1:pos:R:3:forces:R:3 energy=-1.3304605533819502 pbc="F F F"
Tl       0.00000000       0.00000000       0.00000000       0.00000000       0.00000000      -3.74704766
Tl       0.00000000       0.00000000       2.53151515       0.00000000       0.00000000       3.74704766
2
Properties=species:S:1:pos:R:3:forces:R:3 energy=-1.5272652460198473 pbc="F F F"
Tl       0.00000000       0.00000000       0.00000000       0.00000000       0.00000000      -2.96312189
Tl       0.00000000       0.00000000       2.59030303       0.00000000       0.00000000       2.96312189
2
Properties=species:S:1:pos:R:3:forces:R:3 energy=-1.6805817801037808 pbc="F F F"
Tl       0.00000000       0.00000000       0.00000000       0.00000000       0.00000000      -2.26812792
Tl       0.00000000       0.00000000       2.64909091       0.00000000       0.00000000       2.26812792
2
Properties=species:S:1:pos:R:3:forces:R:3 energy=-1.7958919197941141 pbc="F F F"
Tl       0.00000000       0.00000000       0.00000000       0.00000000       0.00000000      -1.67266130
Tl       0.00000000       0.00000000       2.70787879       0.00000000       0.00000000       1.67266130
2
Properties=species:S:1:pos:R:3:forces:R:3 energy=-1.8794653479702466 pbc="F F F"
Tl       0.00000000       0.00000000       0.00000000       0.00000000       0.00000000      -1.19008434
Tl       0.00000000       0.00000000       2.76666667       0.00000000       0.00000000       1.19008434
2
Properties=species:S:1:pos:R:3:forces:R:3 energy=-1.9381038787731997 pbc="F F F"
Tl       0.00000000       0.00000000       0.00000000       0.00000000       0.00000000      -0.82369965
Tl       0.00000000       0.00000000       2.82545455       0.00000000       0.00000000       0.82369965
2
Properties=species:S:1:pos:R:3:forces:R:3 energy=-1.9783822584858615 pbc="F F F"
Tl       0.00000000       0.00000000       0.00000000       0.00000000       0.00000000      -0.56257039
Tl       0.00000000       0.00000000       2.88424242       0.00000000       0.00000000       0.56257039
2
Properties=species:S:1:pos:R:3:forces:R:3 energy=-2.0058853964701897 pbc="F F F"
Tl       0.00000000       0.00000000       0.00000000       0.00000000       0.00000000      -0.38488472
Tl       0.00000000       0.00000000       2.94303030       0.00000000       0.00000000       0.38488472
2
Properties=species:S:1:pos:R:3:forces:R:3 energy=-2.0247701638180438 pbc="F F F"
Tl       0.00000000       0.00000000       0.00000000       0.00000000       0.00000000      -0.26523936
Tl       0.00000000       0.00000000       3.00181818       0.00000000       0.00000000       0.26523936
2
Properties=species:S:1:pos:R:3:forces:R:3 energy=-2.0377693450967214 pbc="F F F"
Tl       0.00000000       0.00000000       0.00000000       0.00000000       0.00000000      -0.18144900
Tl       0.00000000       0.00000000       3.06060606       0.00000000       0.00000000       0.18144900
2
Properties=species:S:1:pos:R:3:forces:R:3 energy=-2.04649818829295 pbc="F F F"
Tl       0.00000000       0.00000000       0.00000000       0.00000000       0.00000000      -0.11799408
Tl       0.00000000       0.00000000       3.11939394       0.00000000       0.00000000       0.11799408
2
Properties=species:S:1:pos:R:3:forces:R:3 energy=-2.0518607394440664 pbc="F F F"
Tl       0.00000000       0.00000000       0.00000000       0.00000000       0.00000000      -0.06578156
Tl       0.00000000       0.00000000       3.17818182       0.00000000       0.00000000       0.06578156
2
Properties=species:S:1:pos:R:3:forces:R:3 energy=-2.0543534021905714 pbc="F F F"
Tl       0.00000000       0.00000000       0.00000000       0.00000000       0.00000000      -0.01979379
Tl       0.00000000       0.00000000       3.23696970       0.00000000       0.00000000       0.01979379
2
Properties=species:S:1:pos:R:3:forces:R:3 energy=-2.0542414267215157 pbc="F F F"
Tl       0.00000000       0.00000000       0.00000000       0.00000000       0.00000000       0.02344123
Tl       0.00000000       0.00000000       3.29575758       0.00000000       0.00000000      -0.02344123
2
Properties=species:S:1:pos:R:3:forces:R:3 energy=-2.051585989113979 pbc="F F F"
Tl       0.00000000       0.00000000       0.00000000       0.00000000       0.00000000       0.06729055
Tl       0.00000000       0.00000000       3.35454545       0.00000000       0.00000000      -0.06729055
2
Properties=species:S:1:pos:R:3:forces:R:3 energy=-2.0462505644136737 pbc="F F F"
Tl       0.00000000       0.00000000       0.00000000       0.00000000       0.00000000       0.11511925
Tl       0.00000000       0.00000000       3.41333333       0.00000000       0.00000000      -0.11511925
2
Properties=species:S:1:pos:R:3:forces:R:3 energy=-2.0379215733119294 pbc="F F F"
Tl       0.00000000       0.00000000       0.00000000       0.00000000       0.00000000       0.16947433
Tl       0.00000000       0.00000000       3.47212121       0.00000000       0.00000000      -0.16947433
2
Properties=species:S:1:pos:R:3:forces:R:3 energy=-2.026180454408514 pbc="F F F"
Tl       0.00000000       0.00000000       0.00000000       0.00000000       0.00000000       0.23111251
Tl       0.00000000       0.00000000       3.53090909       0.00000000       0.00000000      -0.23111251
2
Properties=species:S:1:pos:R:3:forces:R:3 energy=-2.0106326365365295 pbc="F F F"
Tl       0.00000000       0.00000000       0.00000000       0.00000000       0.00000000       0.29861218
Tl       0.00000000       0.00000000       3.58969697       0.00000000       0.00000000      -0.29861218
2
Properties=species:S:1:pos:R:3:forces:R:3 energy=-1.9910165931365975 pbc="F F F"
Tl       0.00000000       0.00000000       0.00000000       0.00000000       0.00000000       0.36884975
Tl       0.00000000       0.00000000       3.64848485       0.00000000       0.00000000      -0.36884975
2
Properties=species:S:1:pos:R:3:forces:R:3 energy=-1.9672851871819927 pbc="F F F"
Tl       0.00000000       0.00000000       0.00000000       0.00000000       0.00000000       0.43803489
Tl       0.00000000       0.00000000       3.70727273       0.00000000       0.00000000      -0.43803489
2
Properties=species:S:1:pos:R:3:forces:R:3 energy=-1.9396028716557834 pbc="F F F"
Tl       0.00000000       0.00000000       0.00000000       0.00000000       0.00000000       0.50275886
Tl       0.00000000       0.00000000       3.76606061       0.00000000       0.00000000      -0.50275886
2
Properties=species:S:1:pos:R:3:forces:R:3 energy=-1.9083071264091858 pbc="F F F"
Tl       0.00000000       0.00000000       0.00000000       0.00000000       0.00000000       0.56068861
Tl       0.00000000       0.00000000       3.82484848       0.00000000       0.00000000      -0.56068861
2
Properties=species:S:1:pos:R:3:forces:R:3 energy=-1.873833229756112 pbc="F F F"
Tl       0.00000000       0.00000000       0.00000000       0.00000000       0.00000000       0.61079973
Tl       0.00000000       0.00000000       3.88363636       0.00000000       0.00000000      -0.61079973
2
Properties=species:S:1:pos:R:3:forces:R:3 energy=-1.8366437349230067 pbc="F F F"
Tl       0.00000000       0.00000000       0.00000000       0.00000000       0.00000000       0.65318072
Tl       0.00000000       0.00000000       3.94242424       0.00000000       0.00000000      -0.65318072
2
Properties=species:S:1:pos:R:3:forces:R:3 energy=-1.7971726222486193 pbc="F F F"
Tl       0.00000000       0.00000000       0.00000000       0.00000000       0.00000000       0.68857318
Tl       0.00000000       0.00000000       4.00121212       0.00000000       0.00000000      -0.68857318
2
Properties=species:S:1:pos:R:3:forces:R:3 energy=-1.7558043713701024 pbc="F F F"
Tl       0.00000000       0.00000000       0.00000000       0.00000000       0.00000000       0.71783507
Tl       0.00000000       0.00000000       4.06000000       0.00000000       0.00000000      -0.71783507
2
Properties=species:S:1:pos:R:3:forces:R:3 energy=-1.7128815264291821 pbc="F F F"
Tl       0.00000000       0.00000000       0.00000000       0.00000000       0.00000000       0.74150133
Tl       0.00000000       0.00000000       4.11878788       0.00000000       0.00000000      -0.74150133
2
Properties=species:S:1:pos:R:3:forces:R:3 energy=-1.6687305624881201 pbc="F F F"
Tl       0.00000000       0.00000000       0.00000000       0.00000000       0.00000000       0.75955570
Tl       0.00000000       0.00000000       4.17757576       0.00000000       0.00000000      -0.75955570
2
Properties=species:S:1:pos:R:3:forces:R:3 energy=-1.6236961377776329 pbc="F F F"
Tl       0.00000000       0.00000000       0.00000000       0.00000000       0.00000000       0.77144623
Tl       0.00000000       0.00000000       4.23636364       0.00000000       0.00000000      -0.77144623
2
Properties=species:S:1:pos:R:3:forces:R:3 energy=-1.5781646812971117 pbc="F F F"
Tl       0.00000000       0.00000000       0.00000000       0.00000000       0.00000000       0.77629566
Tl       0.00000000       0.00000000       4.29515152       0.00000000       0.00000000      -0.77629566
2
Properties=species:S:1:pos:R:3:forces:R:3 energy=-1.5325779438278482 pbc="F F F"
Tl       0.00000000       0.00000000       0.00000000       0.00000000       0.00000000       0.77327853
Tl       0.00000000       0.00000000       4.35393939       0.00000000       0.00000000      -0.77327853
2
Properties=species:S:1:pos:R:3:forces:R:3 energy=-1.4874092646129944 pbc="F F F"
Tl       0.00000000       0.00000000       0.00000000       0.00000000       0.00000000       0.76201260
Tl       0.00000000       0.00000000       4.41272727       0.00000000       0.00000000      -0.76201260
2
Properties=species:S:1:pos:R:3:forces:R:3 energy=-1.4431374498519933 pbc="F F F"
Tl       0.00000000       0.00000000       0.00000000       0.00000000       0.00000000       0.74289638
Tl       0.00000000       0.00000000       4.47151515       0.00000000       0.00000000      -0.74289638
2
Properties=species:S:1:pos:R:3:forces:R:3 energy=-1.4001893993542132 pbc="F F F"
Tl       0.00000000       0.00000000       0.00000000       0.00000000       0.00000000       0.71728981
Tl       0.00000000       0.00000000       4.53030303       0.00000000       0.00000000      -0.71728981
2
Properties=species:S:1:pos:R:3:forces:R:3 energy=-1.3588852817690897 pbc="F F F"
Tl       0.00000000       0.00000000       0.00000000       0.00000000       0.00000000       0.68746197
Tl       0.00000000       0.00000000       4.58909091       0.00000000       0.00000000      -0.68746197
2
Properties=species:S:1:pos:R:3:forces:R:3 energy=-1.319386992991484 pbc="F F F"
Tl       0.00000000       0.00000000       0.00000000       0.00000000       0.00000000       0.65634274
Tl       0.00000000       0.00000000       4.64787879       0.00000000       0.00000000      -0.65634274
2
Properties=species:S:1:pos:R:3:forces:R:3 energy=-1.2816786185094833 pbc="F F F"
Tl       0.00000000       0.00000000       0.00000000       0.00000000       0.00000000       0.62701857
Tl       0.00000000       0.00000000       4.70666667       0.00000000       0.00000000      -0.62701857
2
Properties=species:S:1:pos:R:3:forces:R:3 energy=-1.2455771020518396 pbc="F F F"
Tl       0.00000000       0.00000000       0.00000000       0.00000000       0.00000000       0.60212773
Tl       0.00000000       0.00000000       4.76545455       0.00000000       0.00000000      -0.60212773
2
Properties=species:S:1:pos:R:3:forces:R:3 energy=-1.2107656685385557 pbc="F F F"
Tl       0.00000000       0.00000000       0.00000000       0.00000000       0.00000000       0.58317679
Tl       0.00000000       0.00000000       4.82424242       0.00000000       0.00000000      -0.58317679
2
Properties=species:S:1:pos:R:3:forces:R:3 energy=-1.176897959146974 pbc="F F F"
Tl       0.00000000       0.00000000       0.00000000       0.00000000       0.00000000       0.56993514
Tl       0.00000000       0.00000000       4.88303030       0.00000000       0.00000000      -0.56993514
2
Properties=species:S:1:pos:R:3:forces:R:3 energy=-1.1436876671940532 pbc="F F F"
Tl       0.00000000       0.00000000       0.00000000       0.00000000       0.00000000       0.56008118
Tl       0.00000000       0.00000000       4.94181818       0.00000000       0.00000000      -0.56008118
2
Properties=species:S:1:pos:R:3:forces:R:3 energy=-1.111057235301997 pbc="F F F"
Tl       0.00000000       0.00000000       0.00000000       0.00000000       0.00000000       0.54948872
Tl       0.00000000       0.00000000       5.00060606       0.00000000       0.00000000      -0.54948872
2
Properties=species:S:1:pos:R:3:forces:R:3 energy=-1.079176529893221 pbc="F F F"
Tl       0.00000000       0.00000000       0.00000000       0.00000000       0.00000000       0.53409028
Tl       0.00000000       0.00000000       5.05939394       0.00000000       0.00000000      -0.53409028
2
Properties=species:S:1:pos:R:3:forces:R:3 energy=-1.0483607968705464 pbc="F F F"
Tl       0.00000000       0.00000000       0.00000000       0.00000000       0.00000000       0.51389021
Tl       0.00000000       0.00000000       5.11818182       0.00000000       0.00000000      -0.51389021
2
Properties=species:S:1:pos:R:3:forces:R:3 energy=-1.0186877708826294 pbc="F F F"
Tl       0.00000000       0.00000000       0.00000000       0.00000000       0.00000000       0.49750733
Tl       0.00000000       0.00000000       5.17696970       0.00000000       0.00000000      -0.49750733
2
Properties=species:S:1:pos:R:3:forces:R:3 energy=-0.9895009607246719 pbc="F F F"
Tl       0.00000000       0.00000000       0.00000000       0.00000000       0.00000000       0.49961126
Tl       0.00000000       0.00000000       5.23575758       0.00000000       0.00000000      -0.49961126
2
Properties=species:S:1:pos:R:3:forces:R:3 energy=-0.9594808863923949 pbc="F F F"
Tl       0.00000000       0.00000000       0.00000000       0.00000000       0.00000000       0.52455914
Tl       0.00000000       0.00000000       5.29454545       0.00000000       0.00000000      -0.52455914
2
Properties=species:S:1:pos:R:3:forces:R:3 energy=-0.9277781627952428 pbc="F F F"
Tl       0.00000000       0.00000000       0.00000000       0.00000000       0.00000000       0.55143285
Tl       0.00000000       0.00000000       5.35333333       0.00000000       0.00000000      -0.55143285
2
Properties=species:S:1:pos:R:3:forces:R:3 energy=-0.8951973054383798 pbc="F F F"
Tl       0.00000000       0.00000000       0.00000000       0.00000000       0.00000000       0.55097377
Tl       0.00000000       0.00000000       5.41212121       0.00000000       0.00000000      -0.55097377
2
Properties=species:S:1:pos:R:3:forces:R:3 energy=-0.8635908444568152 pbc="F F F"
Tl       0.00000000       0.00000000       0.00000000       0.00000000       0.00000000       0.52145660
Tl       0.00000000       0.00000000       5.47090909       0.00000000       0.00000000      -0.52145660
2
Properties=species:S:1:pos:R:3:forces:R:3 energy=-0.8338081214643486 pbc="F F F"
Tl       0.00000000       0.00000000       0.00000000       0.00000000       0.00000000       0.49608368
Tl       0.00000000       0.00000000       5.52969697       0.00000000       0.00000000      -0.49608368
2
Properties=species:S:1:pos:R:3:forces:R:3 energy=-0.8044138487115675 pbc="F F F"
Tl       0.00000000       0.00000000       0.00000000       0.00000000       0.00000000       0.51253635
Tl       0.00000000       0.00000000       5.58848485       0.00000000       0.00000000      -0.51253635
2
Properties=species:S:1:pos:R:3:forces:R:3 energy=-0.7727523927839111 pbc="F F F"
Tl       0.00000000       0.00000000       0.00000000       0.00000000       0.00000000       0.56726301
Tl       0.00000000       0.00000000       5.64727273       0.00000000       0.00000000      -0.56726301
2
Properties=species:S:1:pos:R:3:forces:R:3 energy=-0.7381687478328003 pbc="F F F"
Tl       0.00000000       0.00000000       0.00000000       0.00000000       0.00000000       0.59930867
Tl       0.00000000       0.00000000       5.70606061       0.00000000       0.00000000      -0.59930867
2
Properties=species:S:1:pos:R:3:forces:R:3 energy=-0.7040154756503149 pbc="F F F"
Tl       0.00000000       0.00000000       0.00000000       0.00000000       0.00000000       0.54270601
Tl       0.00000000       0.00000000       5.76484848       0.00000000       0.00000000      -0.54270601
2
Properties=species:S:1:pos:R:3:forces:R:3 energy=-0.6762276673185016 pbc="F F F"
Tl       0.00000000       0.00000000       0.00000000       0.00000000       0.00000000       0.39216414
Tl       0.00000000       0.00000000       5.82363636       0.00000000       0.00000000      -0.39216414
2
Properties=species:S:1:pos:R:3:forces:R:3 energy=-0.6586486335084669 pbc="F F F"
Tl       0.00000000       0.00000000       0.00000000       0.00000000       0.00000000       0.20818813
Tl       0.00000000       0.00000000       5.88242424       0.00000000       0.00000000      -0.20818813
2
Properties=species:S:1:pos:R:3:forces:R:3 energy=-0.6509243909945304 pbc="F F F"
Tl       0.00000000       0.00000000       0.00000000       0.00000000       0.00000000       0.06512254
Tl       0.00000000       0.00000000       5.94121212       0.00000000       0.00000000      -0.06512254
2
Properties=species:S:1:pos:R:3:forces:R:3 energy=-0.6491930268010065 pbc="F F F"
Tl       0.00000000       0.00000000       0.00000000       0.00000000       0.00000000       0.01155493
Tl       0.00000000       0.00000000       6.00000000       0.00000000       0.00000000      -0.01155493
