2
Properties=species:S:1:pos:R:3:forces:R:3 energy=16734.493924597104 pbc="F F F"
Tl       0.00000000       0.00000000       0.00000000       0.00000000       0.00000000 -296450.71875000
Tl       0.00000000       0.00000000       0.18000000       0.00000000       0.00000000  296450.71875000
2
Properties=species:S:1:pos:R:3:forces:R:3 energy=6421.6140417846045 pbc="F F F"
Tl       0.00000000       0.00000000       0.00000000       0.00000000       0.00000000  -96934.64843750
Tl       0.00000000       0.00000000       0.23878788       0.00000000       0.00000000   96934.64843750
2
Properties=species:S:1:pos:R:3:forces:R:3 energy=2789.3191199096045 pbc="F F F"
Tl       0.00000000       0.00000000       0.00000000       0.00000000       0.00000000  -37263.96093750
Tl       0.00000000       0.00000000       0.29757576       0.00000000       0.00000000   37263.96093750
2
Properties=species:S:1:pos:R:3:forces:R:3 energy=1326.9508337767923 pbc="F F F"
Tl       0.00000000       0.00000000       0.00000000       0.00000000       0.00000000  -15845.50292969
Tl       0.00000000       0.00000000       0.35636364       0.00000000       0.00000000   15845.50292969
2
Properties=species:S:1:pos:R:3:forces:R:3 energy=684.2489905182413 pbc="F F F"
Tl       0.00000000       0.00000000       0.00000000       0.00000000       0.00000000   -7245.53857422
Tl       0.00000000       0.00000000       0.41515152       0.00000000       0.00000000    7245.53857422
2
Properties=species:S:1:pos:R:3:forces:R:3 energy=382.59811161515916 pbc="F F F"
Tl       0.00000000       0.00000000       0.00000000       0.00000000       0.00000000   -3507.92089844
Tl       0.00000000       0.00000000       0.47393939       0.00000000       0.00000000    3507.92089844
2
Properties=species:S:1:pos:R:3:forces:R:3 energy=233.53866337930728 pbc="F F F"
Tl       0.00000000       0.00000000       0.00000000       0.00000000       0.00000000   -1773.74548340
Tl       0.00000000       0.00000000       0.53272727       0.00000000       0.00000000    1773.74548340
2
Properties=species:S:1:pos:R:3:forces:R:3 energy=157.19206000475953 pbc="F F F"
Tl       0.00000000       0.00000000       0.00000000       0.00000000       0.00000000    -919.29028320
Tl       0.00000000       0.00000000       0.59151515       0.00000000       0.00000000     919.29028320
2
Properties=species:S:1:pos:R:3:forces:R:3 energy=117.60192636310991 pbc="F F F"
Tl       0.00000000       0.00000000       0.00000000       0.00000000       0.00000000    -473.25604248
Tl       0.00000000       0.00000000       0.65030303       0.00000000       0.00000000     473.25604248
2
Properties=species:S:1:pos:R:3:forces:R:3 energy=97.78416974829175 pbc="F F F"
Tl       0.00000000       0.00000000       0.00000000       0.00000000       0.00000000    -222.44288635
Tl       0.00000000       0.00000000       0.70909091       0.00000000       0.00000000     222.44288635
2
Properties=species:S:1:pos:R:3:forces:R:3 energy=89.7745872857813 pbc="F F F"
Tl       0.00000000       0.00000000       0.00000000       0.00000000       0.00000000     -58.68933105
Tl       0.00000000       0.00000000       0.76787879       0.00000000       0.00000000      58.68933105
2
Properties=species:S:1:pos:R:3:forces:R:3 energy=90.23212215818373 pbc="F F F"
Tl       0.00000000       0.00000000       0.00000000       0.00000000       0.00000000      69.71877289
Tl       0.00000000       0.00000000       0.82666667       0.00000000       0.00000000     -69.71877289
2
Properties=species:S:1:pos:R:3:forces:R:3 energy=97.19605050755287 pbc="F F F"
Tl       0.00000000       0.00000000       0.00000000       0.00000000       0.00000000     157.99720764
Tl       0.00000000       0.00000000       0.88545455       0.00000000       0.00000000    -157.99720764
2
Properties=species:S:1:pos:R:3:forces:R:3 energy=107.62183192861526 pbc="F F F"
Tl       0.00000000       0.00000000       0.00000000       0.00000000       0.00000000     186.59248352
Tl       0.00000000       0.00000000       0.94424242       0.00000000       0.00000000    -186.59248352
2
Properties=species:S:1:pos:R:3:forces:R:3 energy=117.9023726293427 pbc="F F F"
Tl       0.00000000       0.00000000       0.00000000       0.00000000       0.00000000     151.91461182
Tl       0.00000000       0.00000000       1.00303030       0.00000000       0.00000000    -151.91461182
2
Properties=species:S:1:pos:R:3:forces:R:3 energy=124.11545431232383 pbc="F F F"
Tl       0.00000000       0.00000000       0.00000000       0.00000000       0.00000000      48.24057388
Tl       0.00000000       0.00000000       1.06181818       0.00000000       0.00000000     -48.24057388
2
Properties=species:S:1:pos:R:3:forces:R:3 energy=122.49119478808154 pbc="F F F"
Tl       0.00000000       0.00000000       0.00000000       0.00000000       0.00000000    -109.52439880
Tl       0.00000000       0.00000000       1.12060606       0.00000000       0.00000000     109.52439880
2
Properties=species:S:1:pos:R:3:forces:R:3 energy=111.04966701897008 pbc="F F F"
Tl       0.00000000       0.00000000       0.00000000       0.00000000       0.00000000    -278.40277100
Tl       0.00000000       0.00000000       1.17939394       0.00000000       0.00000000     278.40277100
2
Properties=species:S:1:pos:R:3:forces:R:3 energy=89.65110817092103 pbc="F F F"
Tl       0.00000000       0.00000000       0.00000000       0.00000000       0.00000000    -431.25872803
Tl       0.00000000       0.00000000       1.23818182       0.00000000       0.00000000     431.25872803
2
Properties=species:S:1:pos:R:3:forces:R:3 energy=68.2342694899801 pbc="F F F"
Tl       0.00000000       0.00000000       0.00000000       0.00000000       0.00000000    -245.25363159
Tl       0.00000000       0.00000000       1.29696970       0.00000000       0.00000000     245.25363159
2
Properties=species:S:1:pos:R:3:forces:R:3 energy=56.2836747936901 pbc="F F F"
Tl       0.00000000       0.00000000       0.00000000       0.00000000       0.00000000    -188.36924744
Tl       0.00000000       0.00000000       1.35575758       0.00000000       0.00000000     188.36924744
2
Properties=species:S:1:pos:R:3:forces:R:3 energy=45.90271387906212 pbc="F F F"
Tl       0.00000000       0.00000000       0.00000000       0.00000000       0.00000000    -164.61482239
Tl       0.00000000       0.00000000       1.41454545       0.00000000       0.00000000     164.61482239
2
Properties=species:S:1:pos:R:3:forces:R:3 energy=36.91053962881254 pbc="F F F"
Tl       0.00000000       0.00000000       0.00000000       0.00000000       0.00000000    -139.97052002
Tl       0.00000000       0.00000000       1.47333333       0.00000000       0.00000000     139.97052002
2
Properties=species:S:1:pos:R:3:forces:R:3 energy=29.65289910981983 pbc="F F F"
Tl       0.00000000       0.00000000       0.00000000       0.00000000       0.00000000    -106.10176849
Tl       0.00000000       0.00000000       1.53212121       0.00000000       0.00000000     106.10176849
2
Properties=species:S:1:pos:R:3:forces:R:3 energy=24.329966732944584 pbc="F F F"
Tl       0.00000000       0.00000000       0.00000000       0.00000000       0.00000000     -77.09938812
Tl       0.00000000       0.00000000       1.59090909       0.00000000       0.00000000      77.09938812
2
Properties=species:S:1:pos:R:3:forces:R:3 energy=20.328947701283717 pbc="F F F"
Tl       0.00000000       0.00000000       0.00000000       0.00000000       0.00000000     -60.84381104
Tl       0.00000000       0.00000000       1.64969697       0.00000000       0.00000000      60.84381104
2
Properties=species:S:1:pos:R:3:forces:R:3 energy=17.0249660970365 pbc="F F F"
Tl       0.00000000       0.00000000       0.00000000       0.00000000       0.00000000     -52.41114426
Tl       0.00000000       0.00000000       1.70848485       0.00000000       0.00000000      52.41114426
2
Properties=species:S:1:pos:R:3:forces:R:3 energy=14.097682844034955 pbc="F F F"
Tl       0.00000000       0.00000000       0.00000000       0.00000000       0.00000000     -47.54874802
Tl       0.00000000       0.00000000       1.76727273       0.00000000       0.00000000      47.54874802
2
Properties=species:S:1:pos:R:3:forces:R:3 energy=11.413637995620729 pbc="F F F"
Tl       0.00000000       0.00000000       0.00000000       0.00000000       0.00000000     -43.76368713
Tl       0.00000000       0.00000000       1.82606061       0.00000000       0.00000000      43.76368713
2
Properties=species:S:1:pos:R:3:forces:R:3 energy=8.965704917857536 pbc="F F F"
Tl       0.00000000       0.00000000       0.00000000       0.00000000       0.00000000     -39.34049988
Tl       0.00000000       0.00000000       1.88484848       0.00000000       0.00000000      39.34049988
2
Properties=species:S:1:pos:R:3:forces:R:3 energy=6.807674303595862 pbc="F F F"
Tl       0.00000000       0.00000000       0.00000000       0.00000000       0.00000000     -33.95176315
Tl       0.00000000       0.00000000       1.94363636       0.00000000       0.00000000      33.95176315
2
Properties=species:S:1:pos:R:3:forces:R:3 energy=4.981143725077153 pbc="F F F"
Tl       0.00000000       0.00000000       0.00000000       0.00000000       0.00000000     -28.18865395
Tl       0.00000000       0.00000000       2.00242424       0.00000000       0.00000000      28.18865395
2
Properties=species:S:1:pos:R:3:forces:R:3 energy=3.48718266702672 pbc="F F F"
Tl       0.00000000       0.00000000       0.00000000       0.00000000       0.00000000     -22.73088455
Tl       0.00000000       0.00000000       2.06121212       0.00000000       0.00000000      22.73088455
2
Properties=species:S:1:pos:R:3:forces:R:3 energy=2.294478857013989 pbc="F F F"
Tl       0.00000000       0.00000000       0.00000000       0.00000000       0.00000000     -17.98181152
Tl       0.00000000       0.00000000       2.12000000       0.00000000       0.00000000      17.98181152
2
Properties=species:S:1:pos:R:3:forces:R:3 energy=1.3562066151746948 pbc="F F F"
Tl       0.00000000       0.00000000       0.00000000       0.00000000       0.00000000     -14.08265972
Tl       0.00000000       0.00000000       2.17878788       0.00000000       0.00000000      14.08265972
2
Properties=species:S:1:pos:R:3:forces:R:3 energy=0.622216292587205 pbc="F F F"
Tl       0.00000000       0.00000000       0.00000000       0.00000000       0.00000000     -11.02189541
Tl       0.00000000       0.00000000       2.23757576       0.00000000       0.00000000      11.02189541
2
Properties=species:S:1:pos:R:3:forces:R:3 energy=0.04572216925785477 pbc="F F F"
Tl       0.00000000       0.00000000       0.00000000       0.00000000       0.00000000      -8.70326805
Tl       0.00000000       0.00000000       2.29636364       0.00000000       0.00000000       8.70326805
2
Properties=species:S:1:pos:R:3:forces:R:3 energy=-0.4127018369348125 pbc="F F F"
Tl       0.00000000       0.00000000       0.00000000       0.00000000       0.00000000      -6.97729635
Tl       0.00000000       0.00000000       2.35515152       0.00000000       0.00000000       6.97729635
2
Properties=species:S:1:pos:R:3:forces:R:3 energy=-0.7828697886176138 pbc="F F F"
Tl       0.00000000       0.00000000       0.00000000       0.00000000       0.00000000      -5.67201281
Tl       0.00000000       0.00000000       2.41393939       0.00000000       0.00000000       5.67201281
2
Properties=species:S:1:pos:R:3:forces:R:3 energy=-1.084756757019268 pbc="F F F"
Tl       0.00000000       0.00000000       0.00000000       0.00000000       0.00000000      -4.63173246
Tl       0.00000000       0.00000000       2.47272727       0.00000000       0.00000000       4.63173246
2
Properties=species:S:1:pos:R:3:forces:R:3 energy=-1.3304610302191084 pbc="F F F"
Tl       0.00000000       0.00000000       0.00000000       0.00000000       0.00000000      -3.74704885
Tl       0.00000000       0.00000000       2.53151515       0.00000000       0.00000000       3.74704885
2
Properties=species:S:1:pos:R:3:forces:R:3 energy=-1.527264769182689 pbc="F F F"
Tl       0.00000000       0.00000000       0.00000000       0.00000000       0.00000000      -2.96312451
Tl       0.00000000       0.00000000       2.59030303       0.00000000       0.00000000       2.96312451
2
Properties=species:S:1:pos:R:3:forces:R:3 energy=-1.6805815416852017 pbc="F F F"
Tl       0.00000000       0.00000000       0.00000000       0.00000000       0.00000000      -2.26812744
Tl       0.00000000       0.00000000       2.64909091       0.00000000       0.00000000       2.26812744
2
Properties=species:S:1:pos:R:3:forces:R:3 energy=-1.7958909787910864 pbc="F F F"
Tl       0.00000000       0.00000000       0.00000000       0.00000000       0.00000000      -1.67265975
Tl       0.00000000       0.00000000       2.70787879       0.00000000       0.00000000       1.67265975
2
Properties=species:S:1:pos:R:3:forces:R:3 energy=-1.8794651095516675 pbc="F F F"
Tl       0.00000000       0.00000000       0.00000000       0.00000000       0.00000000      -1.19008505
Tl       0.00000000       0.00000000       2.76666667       0.00000000       0.00000000       1.19008505
2
Properties=species:S:1:pos:R:3:forces:R:3 energy=-1.9381036403546206 pbc="F F F"
Tl       0.00000000       0.00000000       0.00000000       0.00000000       0.00000000      -0.82369941
Tl       0.00000000       0.00000000       2.82545455       0.00000000       0.00000000       0.82369941
2
Properties=species:S:1:pos:R:3:forces:R:3 energy=-1.9783824969044406 pbc="F F F"
Tl       0.00000000       0.00000000       0.00000000       0.00000000       0.00000000      -0.56256920
Tl       0.00000000       0.00000000       2.88424242       0.00000000       0.00000000       0.56256920
2
Properties=species:S:1:pos:R:3:forces:R:3 energy=-2.0058851580516106 pbc="F F F"
Tl       0.00000000       0.00000000       0.00000000       0.00000000       0.00000000      -0.38488454
Tl       0.00000000       0.00000000       2.94303030       0.00000000       0.00000000       0.38488454
2
Properties=species:S:1:pos:R:3:forces:R:3 energy=-2.024770640655202 pbc="F F F"
Tl       0.00000000       0.00000000       0.00000000       0.00000000       0.00000000      -0.26523843
Tl       0.00000000       0.00000000       3.00181818       0.00000000       0.00000000       0.26523843
2
Properties=species:S:1:pos:R:3:forces:R:3 energy=-2.0377691130137863 pbc="F F F"
Tl       0.00000000       0.00000000       0.00000000       0.00000000       0.00000000      -0.18144894
Tl       0.00000000       0.00000000       3.06060606       0.00000000       0.00000000       0.18144894
2
Properties=species:S:1:pos:R:3:forces:R:3 energy=-2.046498423543707 pbc="F F F"
Tl       0.00000000       0.00000000       0.00000000       0.00000000       0.00000000      -0.11799352
Tl       0.00000000       0.00000000       3.11939394       0.00000000       0.00000000       0.11799352
2
Properties=species:S:1:pos:R:3:forces:R:3 energy=-2.05185978576975 pbc="F F F"
Tl       0.00000000       0.00000000       0.00000000       0.00000000       0.00000000      -0.06578234
Tl       0.00000000       0.00000000       3.17818182       0.00000000       0.00000000       0.06578234
2
Properties=species:S:1:pos:R:3:forces:R:3 energy=-2.0543536406091505 pbc="F F F"
Tl       0.00000000       0.00000000       0.00000000       0.00000000       0.00000000      -0.01979442
Tl       0.00000000       0.00000000       3.23696970       0.00000000       0.00000000       0.01979442
2
Properties=species:S:1:pos:R:3:forces:R:3 energy=-2.0542411883029366 pbc="F F F"
Tl       0.00000000       0.00000000       0.00000000       0.00000000       0.00000000       0.02344092
Tl       0.00000000       0.00000000       3.29575758       0.00000000       0.00000000      -0.02344092
2
Properties=species:S:1:pos:R:3:forces:R:3 energy=-2.0515857506954 pbc="F F F"
Tl       0.00000000       0.00000000       0.00000000       0.00000000       0.00000000       0.06729132
Tl       0.00000000       0.00000000       3.35454545       0.00000000       0.00000000      -0.06729132
2
Properties=species:S:1:pos:R:3:forces:R:3 energy=-2.046250802832253 pbc="F F F"
Tl       0.00000000       0.00000000       0.00000000       0.00000000       0.00000000       0.11511942
Tl       0.00000000       0.00000000       3.41333333       0.00000000       0.00000000      -0.11511942
2
Properties=species:S:1:pos:R:3:forces:R:3 energy=-2.0379213348933503 pbc="F F F"
Tl       0.00000000       0.00000000       0.00000000       0.00000000       0.00000000       0.16947363
Tl       0.00000000       0.00000000       3.47212121       0.00000000       0.00000000      -0.16947363
2
Properties=species:S:1:pos:R:3:forces:R:3 energy=-2.026180692827093 pbc="F F F"
Tl       0.00000000       0.00000000       0.00000000       0.00000000       0.00000000       0.23111206
Tl       0.00000000       0.00000000       3.53090909       0.00000000       0.00000000      -0.23111206
2
Properties=species:S:1:pos:R:3:forces:R:3 energy=-2.0106321533637272 pbc="F F F"
Tl       0.00000000       0.00000000       0.00000000       0.00000000       0.00000000       0.29861265
Tl       0.00000000       0.00000000       3.58969697       0.00000000       0.00000000      -0.29861265
2
Properties=species:S:1:pos:R:3:forces:R:3 energy=-1.9910170699737557 pbc="F F F"
Tl       0.00000000       0.00000000       0.00000000       0.00000000       0.00000000       0.36884880
Tl       0.00000000       0.00000000       3.64848485       0.00000000       0.00000000      -0.36884880
2
Properties=species:S:1:pos:R:3:forces:R:3 energy=-1.967285190349815 pbc="F F F"
Tl       0.00000000       0.00000000       0.00000000       0.00000000       0.00000000       0.43803415
Tl       0.00000000       0.00000000       3.70727273       0.00000000       0.00000000      -0.43803415
2
Properties=species:S:1:pos:R:3:forces:R:3 energy=-1.9396028653201391 pbc="F F F"
Tl       0.00000000       0.00000000       0.00000000       0.00000000       0.00000000       0.50275874
Tl       0.00000000       0.00000000       3.76606061       0.00000000       0.00000000      -0.50275874
2
Properties=species:S:1:pos:R:3:forces:R:3 energy=-1.9083071200735415 pbc="F F F"
Tl       0.00000000       0.00000000       0.00000000       0.00000000       0.00000000       0.56068832
Tl       0.00000000       0.00000000       3.82484848       0.00000000       0.00000000      -0.56068832
2
Properties=species:S:1:pos:R:3:forces:R:3 energy=-1.873833468174691 pbc="F F F"
Tl       0.00000000       0.00000000       0.00000000       0.00000000       0.00000000       0.61080009
Tl       0.00000000       0.00000000       3.88363636       0.00000000       0.00000000      -0.61080009
2
Properties=species:S:1:pos:R:3:forces:R:3 energy=-1.8366437285873625 pbc="F F F"
Tl       0.00000000       0.00000000       0.00000000       0.00000000       0.00000000       0.65318060
Tl       0.00000000       0.00000000       3.94242424       0.00000000       0.00000000      -0.65318060
2
Properties=species:S:1:pos:R:3:forces:R:3 energy=-1.797172615912975 pbc="F F F"
Tl       0.00000000       0.00000000       0.00000000       0.00000000       0.00000000       0.68857342
Tl       0.00000000       0.00000000       4.00121212       0.00000000       0.00000000      -0.68857342
2
Properties=species:S:1:pos:R:3:forces:R:3 energy=-1.7558041329515233 pbc="F F F"
Tl       0.00000000       0.00000000       0.00000000       0.00000000       0.00000000       0.71783495
Tl       0.00000000       0.00000000       4.06000000       0.00000000       0.00000000      -0.71783495
2
Properties=species:S:1:pos:R:3:forces:R:3 energy=-1.7128820032663403 pbc="F F F"
Tl       0.00000000       0.00000000       0.00000000       0.00000000       0.00000000       0.74150002
Tl       0.00000000       0.00000000       4.11878788       0.00000000       0.00000000      -0.74150002
2
Properties=species:S:1:pos:R:3:forces:R:3 energy=-1.668731032989634 pbc="F F F"
Tl       0.00000000       0.00000000       0.00000000       0.00000000       0.00000000       0.75955641
Tl       0.00000000       0.00000000       4.17757576       0.00000000       0.00000000      -0.75955641
2
Properties=species:S:1:pos:R:3:forces:R:3 energy=-1.6236961251063442 pbc="F F F"
Tl       0.00000000       0.00000000       0.00000000       0.00000000       0.00000000       0.77144665
Tl       0.00000000       0.00000000       4.23636364       0.00000000       0.00000000      -0.77144665
2
Properties=species:S:1:pos:R:3:forces:R:3 energy=-1.5781644460463546 pbc="F F F"
Tl       0.00000000       0.00000000       0.00000000       0.00000000       0.00000000       0.77629590
Tl       0.00000000       0.00000000       4.29515152       0.00000000       0.00000000      -0.77629590
2
Properties=species:S:1:pos:R:3:forces:R:3 energy=-1.5325781822464273 pbc="F F F"
Tl       0.00000000       0.00000000       0.00000000       0.00000000       0.00000000       0.77327758
Tl       0.00000000       0.00000000       4.35393939       0.00000000       0.00000000      -0.77327758
2
Properties=species:S:1:pos:R:3:forces:R:3 energy=-1.4874093743188175 pbc="F F F"
Tl       0.00000000       0.00000000       0.00000000       0.00000000       0.00000000       0.76201391
Tl       0.00000000       0.00000000       4.41272727       0.00000000       0.00000000      -0.76201391
2
Properties=species:S:1:pos:R:3:forces:R:3 energy=-1.443137936192618 pbc="F F F"
Tl       0.00000000       0.00000000       0.00000000       0.00000000       0.00000000       0.74289668
Tl       0.00000000       0.00000000       4.47151515       0.00000000       0.00000000      -0.74289668
2
Properties=species:S:1:pos:R:3:forces:R:3 energy=-1.4001893993542132 pbc="F F F"
Tl       0.00000000       0.00000000       0.00000000       0.00000000       0.00000000       0.71729034
Tl       0.00000000       0.00000000       4.53030303       0.00000000       0.00000000      -0.71729034
2
Properties=species:S:1:pos:R:3:forces:R:3 energy=-1.3588851530563337 pbc="F F F"
Tl       0.00000000       0.00000000       0.00000000       0.00000000       0.00000000       0.68746448
Tl       0.00000000       0.00000000       4.58909091       0.00000000       0.00000000      -0.68746448
2
Properties=species:S:1:pos:R:3:forces:R:3 energy=-1.319386992991484 pbc="F F F"
Tl       0.00000000       0.00000000       0.00000000       0.00000000       0.00000000       0.65634596
Tl       0.00000000       0.00000000       4.64787879       0.00000000       0.00000000      -0.65634596
2
Properties=species:S:1:pos:R:3:forces:R:3 energy=-1.2816786185094833 pbc="F F F"
Tl       0.00000000       0.00000000       0.00000000       0.00000000       0.00000000       0.62701881
Tl       0.00000000       0.00000000       4.70666667       0.00000000       0.00000000      -0.62701881
2
Properties=species:S:1:pos:R:3:forces:R:3 energy=-1.2455772212611291 pbc="F F F"
Tl       0.00000000       0.00000000       0.00000000       0.00000000       0.00000000       0.60212481
Tl       0.00000000       0.00000000       4.76545455       0.00000000       0.00000000      -0.60212481
2
Properties=species:S:1:pos:R:3:forces:R:3 energy=-1.2107643604041927 pbc="F F F"
Tl       0.00000000       0.00000000       0.00000000       0.00000000       0.00000000       0.58317220
Tl       0.00000000       0.00000000       4.82424242       0.00000000       0.00000000      -0.58317220
2
Properties=species:S:1:pos:R:3:forces:R:3 energy=-1.1768982039011973 pbc="F F F"
Tl       0.00000000       0.00000000       0.00000000       0.00000000       0.00000000       0.56993723
Tl       0.00000000       0.00000000       4.88303030       0.00000000       0.00000000      -0.56993723
2
Properties=species:S:1:pos:R:3:forces:R:3 energy=-1.1436879087804546 pbc="F F F"
Tl       0.00000000       0.00000000       0.00000000       0.00000000       0.00000000       0.56007779
Tl       0.00000000       0.00000000       4.94181818       0.00000000       0.00000000      -0.56007779
2
Properties=species:S:1:pos:R:3:forces:R:3 energy=-1.1110593810692089 pbc="F F F"
Tl       0.00000000       0.00000000       0.00000000       0.00000000       0.00000000       0.54948908
Tl       0.00000000       0.00000000       5.00060606       0.00000000       0.00000000      -0.54948908
2
Properties=species:S:1:pos:R:3:forces:R:3 energy=-1.0791764138517534 pbc="F F F"
Tl       0.00000000       0.00000000       0.00000000       0.00000000       0.00000000       0.53409165
Tl       0.00000000       0.00000000       5.05939394       0.00000000       0.00000000      -0.53409165
2
Properties=species:S:1:pos:R:3:forces:R:3 energy=-1.0483629426377583 pbc="F F F"
Tl       0.00000000       0.00000000       0.00000000       0.00000000       0.00000000       0.51389486
Tl       0.00000000       0.00000000       5.11818182       0.00000000       0.00000000      -0.51389486
2
Properties=species:S:1:pos:R:3:forces:R:3 energy=-1.0186878225677187 pbc="F F F"
Tl       0.00000000       0.00000000       0.00000000       0.00000000       0.00000000       0.49750495
Tl       0.00000000       0.00000000       5.17696970       0.00000000       0.00000000      -0.49750495
2
Properties=species:S:1:pos:R:3:forces:R:3 energy=-0.9895008446832044 pbc="F F F"
Tl       0.00000000       0.00000000       0.00000000       0.00000000       0.00000000       0.49961275
Tl       0.00000000       0.00000000       5.23575758       0.00000000       0.00000000      -0.49961275
2
Properties=species:S:1:pos:R:3:forces:R:3 energy=-0.9594791578576964 pbc="F F F"
Tl       0.00000000       0.00000000       0.00000000       0.00000000       0.00000000       0.52456599
Tl       0.00000000       0.00000000       5.29454545       0.00000000       0.00000000      -0.52456599
2
Properties=species:S:1:pos:R:3:forces:R:3 energy=-0.9277781564595985 pbc="F F F"
Tl       0.00000000       0.00000000       0.00000000       0.00000000       0.00000000       0.55142969
Tl       0.00000000       0.00000000       5.35333333       0.00000000       0.00000000      -0.55142969
2
Properties=species:S:1:pos:R:3:forces:R:3 energy=-0.8952018934121164 pbc="F F F"
Tl       0.00000000       0.00000000       0.00000000       0.00000000       0.00000000       0.55097717
Tl       0.00000000       0.00000000       5.41212121       0.00000000       0.00000000      -0.55097717
2
Properties=species:S:1:pos:R:3:forces:R:3 energy=-0.86359090406146 pbc="F F F"
Tl       0.00000000       0.00000000       0.00000000       0.00000000       0.00000000       0.52146250
Tl       0.00000000       0.00000000       5.47090909       0.00000000       0.00000000      -0.52146250
2
Properties=species:S:1:pos:R:3:forces:R:3 energy=-0.833808174733349 pbc="F F F"
Tl       0.00000000       0.00000000       0.00000000       0.00000000       0.00000000       0.49609256
Tl       0.00000000       0.00000000       5.52969697       0.00000000       0.00000000      -0.49609256
2
Properties=species:S:1:pos:R:3:forces:R:3 energy=-0.8044138487115675 pbc="F F F"
Tl       0.00000000       0.00000000       0.00000000       0.00000000       0.00000000       0.51255113
Tl       0.00000000       0.00000000       5.58848485       0.00000000       0.00000000      -0.51255113
2
Properties=species:S:1:pos:R:3:forces:R:3 energy=-0.772774684921057 pbc="F F F"
Tl       0.00000000       0.00000000       0.00000000       0.00000000       0.00000000       0.56714439
Tl       0.00000000       0.00000000       5.64727273       0.00000000       0.00000000      -0.56714439
2
Properties=species:S:1:pos:R:3:forces:R:3 energy=-0.7381687979339786 pbc="F F F"
Tl       0.00000000       0.00000000       0.00000000       0.00000000       0.00000000       0.59931558
Tl       0.00000000       0.00000000       5.70606061       0.00000000       0.00000000      -0.59931558
2
Properties=species:S:1:pos:R:3:forces:R:3 energy=-0.704015414461759 pbc="F F F"
Tl       0.00000000       0.00000000       0.00000000       0.00000000       0.00000000       0.54269564
Tl       0.00000000       0.00000000       5.76484848       0.00000000       0.00000000      -0.54269564
2
Properties=species:S:1:pos:R:3:forces:R:3 energy=-0.6762006664144183 pbc="F F F"
Tl       0.00000000       0.00000000       0.00000000       0.00000000       0.00000000       0.39223471
Tl       0.00000000       0.00000000       5.82363636       0.00000000       0.00000000      -0.39223471
2
Properties=species:S:1:pos:R:3:forces:R:3 energy=-0.658648570736 pbc="F F F"
Tl       0.00000000       0.00000000       0.00000000       0.00000000       0.00000000       0.20821244
Tl       0.00000000       0.00000000       5.88242424       0.00000000       0.00000000      -0.20821244
2
Properties=species:S:1:pos:R:3:forces:R:3 energy=-0.6509243909945304 pbc="F F F"
Tl       0.00000000       0.00000000       0.00000000       0.00000000       0.00000000       0.06521009
Tl       0.00000000       0.00000000       5.94121212       0.00000000       0.00000000      -0.06521009
2
Properties=species:S:1:pos:R:3:forces:R:3 energy=-0.6491930268010065 pbc="F F F"
Tl       0.00000000       0.00000000       0.00000000       0.00000000       0.00000000       0.01155493
Tl       0.00000000       0.00000000       6.00000000       0.00000000       0.00000000      -0.01155493
