2
Properties=species:S:1:pos:R:3:forces:R:3 energy=13471.249459100292 pbc="F F F"
Tm       0.00000000       0.00000000       0.00000000       0.00000000       0.00000000 -234020.43750000
Tm       0.00000000       0.00000000       0.18000000       0.00000000       0.00000000  234020.43750000
2
Properties=species:S:1:pos:R:3:forces:R:3 energy=5271.789986444042 pbc="F F F"
Tm       0.00000000       0.00000000       0.00000000       0.00000000       0.00000000  -77879.53125000
Tm       0.00000000       0.00000000       0.23878788       0.00000000       0.00000000   77879.53125000
2
Properties=species:S:1:pos:R:3:forces:R:3 energy=2330.6867149596674 pbc="F F F"
Tm       0.00000000       0.00000000       0.00000000       0.00000000       0.00000000  -30502.39453125
Tm       0.00000000       0.00000000       0.29757576       0.00000000       0.00000000   30502.39453125
2
Properties=species:S:1:pos:R:3:forces:R:3 energy=1123.8440635924799 pbc="F F F"
Tm       0.00000000       0.00000000       0.00000000       0.00000000       0.00000000  -13218.32031250
Tm       0.00000000       0.00000000       0.35636364       0.00000000       0.00000000   13218.32031250
2
Properties=species:S:1:pos:R:3:forces:R:3 energy=583.3342979801512 pbc="F F F"
Tm       0.00000000       0.00000000       0.00000000       0.00000000       0.00000000   -6157.60644531
Tm       0.00000000       0.00000000       0.41515152       0.00000000       0.00000000    6157.60644531
2
Properties=species:S:1:pos:R:3:forces:R:3 energy=324.78321155437 pbc="F F F"
Tm       0.00000000       0.00000000       0.00000000       0.00000000       0.00000000   -3041.28466797
Tm       0.00000000       0.00000000       0.47393939       0.00000000       0.00000000    3041.28466797
2
Properties=species:S:1:pos:R:3:forces:R:3 energy=194.1006554146975 pbc="F F F"
Tm       0.00000000       0.00000000       0.00000000       0.00000000       0.00000000   -1580.51525879
Tm       0.00000000       0.00000000       0.53272727       0.00000000       0.00000000    1580.51525879
2
Properties=species:S:1:pos:R:3:forces:R:3 energy=124.767800228102 pbc="F F F"
Tm       0.00000000       0.00000000       0.00000000       0.00000000       0.00000000    -859.33599854
Tm       0.00000000       0.00000000       0.59151515       0.00000000       0.00000000     859.33599854
2
Properties=species:S:1:pos:R:3:forces:R:3 energy=86.37649625000259 pbc="F F F"
Tm       0.00000000       0.00000000       0.00000000       0.00000000       0.00000000    -485.94271851
Tm       0.00000000       0.00000000       0.65030303       0.00000000       0.00000000     485.94271851
2
Properties=species:S:1:pos:R:3:forces:R:3 energy=64.33806706577641 pbc="F F F"
Tm       0.00000000       0.00000000       0.00000000       0.00000000       0.00000000    -283.53601074
Tm       0.00000000       0.00000000       0.70909091       0.00000000       0.00000000     283.53601074
2
Properties=species:S:1:pos:R:3:forces:R:3 energy=51.353543393953366 pbc="F F F"
Tm       0.00000000       0.00000000       0.00000000       0.00000000       0.00000000    -168.48294067
Tm       0.00000000       0.00000000       0.76787879       0.00000000       0.00000000     168.48294067
2
Properties=species:S:1:pos:R:3:forces:R:3 energy=43.63441589097953 pbc="F F F"
Tm       0.00000000       0.00000000       0.00000000       0.00000000       0.00000000     -99.71032715
Tm       0.00000000       0.00000000       0.82666667       0.00000000       0.00000000      99.71032715
2
Properties=species:S:1:pos:R:3:forces:R:3 energy=39.12733985563499 pbc="F F F"
Tm       0.00000000       0.00000000       0.00000000       0.00000000       0.00000000     -56.93091965
Tm       0.00000000       0.00000000       0.88545455       0.00000000       0.00000000      56.93091965
2
Properties=species:S:1:pos:R:3:forces:R:3 energy=36.62338431868147 pbc="F F F"
Tm       0.00000000       0.00000000       0.00000000       0.00000000       0.00000000     -30.49845695
Tm       0.00000000       0.00000000       0.94424242       0.00000000       0.00000000      30.49845695
2
Properties=species:S:1:pos:R:3:forces:R:3 energy=35.31562641820645 pbc="F F F"
Tm       0.00000000       0.00000000       0.00000000       0.00000000       0.00000000     -15.63600445
Tm       0.00000000       0.00000000       1.00303030       0.00000000       0.00000000      15.63600445
2
Properties=species:S:1:pos:R:3:forces:R:3 energy=34.61926927403494 pbc="F F F"
Tm       0.00000000       0.00000000       0.00000000       0.00000000       0.00000000      -9.25546455
Tm       0.00000000       0.00000000       1.06181818       0.00000000       0.00000000       9.25546455
2
Properties=species:S:1:pos:R:3:forces:R:3 energy=34.10550280455191 pbc="F F F"
Tm       0.00000000       0.00000000       0.00000000       0.00000000       0.00000000      -9.12231541
Tm       0.00000000       0.00000000       1.12060606       0.00000000       0.00000000       9.12231541
2
Properties=species:S:1:pos:R:3:forces:R:3 energy=33.454468509417104 pbc="F F F"
Tm       0.00000000       0.00000000       0.00000000       0.00000000       0.00000000     -13.70519352
Tm       0.00000000       0.00000000       1.17939394       0.00000000       0.00000000      13.70519352
2
Properties=species:S:1:pos:R:3:forces:R:3 energy=32.42617239024342 pbc="F F F"
Tm       0.00000000       0.00000000       0.00000000       0.00000000       0.00000000     -21.75464630
Tm       0.00000000       0.00000000       1.23818182       0.00000000       0.00000000      21.75464630
2
Properties=species:S:1:pos:R:3:forces:R:3 energy=30.852876562243168 pbc="F F F"
Tm       0.00000000       0.00000000       0.00000000       0.00000000       0.00000000     -32.02527237
Tm       0.00000000       0.00000000       1.29696970       0.00000000       0.00000000      32.02527237
2
Properties=species:S:1:pos:R:3:forces:R:3 energy=28.647693729153634 pbc="F F F"
Tm       0.00000000       0.00000000       0.00000000       0.00000000       0.00000000     -42.93890762
Tm       0.00000000       0.00000000       1.35575758       0.00000000       0.00000000      42.93890762
2
Properties=species:S:1:pos:R:3:forces:R:3 energy=25.835728515050217 pbc="F F F"
Tm       0.00000000       0.00000000       0.00000000       0.00000000       0.00000000     -52.23022461
Tm       0.00000000       0.00000000       1.41454545       0.00000000       0.00000000      52.23022461
2
Properties=species:S:1:pos:R:3:forces:R:3 energy=22.59157020375029 pbc="F F F"
Tm       0.00000000       0.00000000       0.00000000       0.00000000       0.00000000     -57.22911835
Tm       0.00000000       0.00000000       1.47333333       0.00000000       0.00000000      57.22911835
2
Properties=species:S:1:pos:R:3:forces:R:3 energy=19.21904234235092 pbc="F F F"
Tm       0.00000000       0.00000000       0.00000000       0.00000000       0.00000000     -56.64234924
Tm       0.00000000       0.00000000       1.53212121       0.00000000       0.00000000      56.64234924
2
Properties=species:S:1:pos:R:3:forces:R:3 energy=16.002725338963042 pbc="F F F"
Tm       0.00000000       0.00000000       0.00000000       0.00000000       0.00000000     -52.47486496
Tm       0.00000000       0.00000000       1.59090909       0.00000000       0.00000000      52.47486496
2
Properties=species:S:1:pos:R:3:forces:R:3 energy=13.061789534545925 pbc="F F F"
Tm       0.00000000       0.00000000       0.00000000       0.00000000       0.00000000     -47.54230118
Tm       0.00000000       0.00000000       1.64969697       0.00000000       0.00000000      47.54230118
2
Properties=species:S:1:pos:R:3:forces:R:3 energy=10.423510179275539 pbc="F F F"
Tm       0.00000000       0.00000000       0.00000000       0.00000000       0.00000000     -42.06868744
Tm       0.00000000       0.00000000       1.70848485       0.00000000       0.00000000      42.06868744
2
Properties=species:S:1:pos:R:3:forces:R:3 energy=8.12960884522922 pbc="F F F"
Tm       0.00000000       0.00000000       0.00000000       0.00000000       0.00000000     -35.93009949
Tm       0.00000000       0.00000000       1.76727273       0.00000000       0.00000000      35.93009949
2
Properties=species:S:1:pos:R:3:forces:R:3 energy=6.192433935538991 pbc="F F F"
Tm       0.00000000       0.00000000       0.00000000       0.00000000       0.00000000     -30.10167122
Tm       0.00000000       0.00000000       1.82606061       0.00000000       0.00000000      30.10167122
2
Properties=species:S:1:pos:R:3:forces:R:3 energy=4.572893150218367 pbc="F F F"
Tm       0.00000000       0.00000000       0.00000000       0.00000000       0.00000000     -25.13928604
Tm       0.00000000       0.00000000       1.88484848       0.00000000       0.00000000      25.13928604
2
Properties=species:S:1:pos:R:3:forces:R:3 energy=3.222331521848125 pbc="F F F"
Tm       0.00000000       0.00000000       0.00000000       0.00000000       0.00000000     -20.90981293
Tm       0.00000000       0.00000000       1.94363636       0.00000000       0.00000000      20.90981293
2
Properties=species:S:1:pos:R:3:forces:R:3 energy=2.103815493627275 pbc="F F F"
Tm       0.00000000       0.00000000       0.00000000       0.00000000       0.00000000     -17.22613907
Tm       0.00000000       0.00000000       2.00242424       0.00000000       0.00000000      17.22613907
2
Properties=species:S:1:pos:R:3:forces:R:3 energy=1.187457969860174 pbc="F F F"
Tm       0.00000000       0.00000000       0.00000000       0.00000000       0.00000000     -14.02759743
Tm       0.00000000       0.00000000       2.06121212       0.00000000       0.00000000      14.02759743
2
Properties=species:S:1:pos:R:3:forces:R:3 energy=0.44553467274329733 pbc="F F F"
Tm       0.00000000       0.00000000       0.00000000       0.00000000       0.00000000     -11.28714848
Tm       0.00000000       0.00000000       2.12000000       0.00000000       0.00000000      11.28714848
2
Properties=species:S:1:pos:R:3:forces:R:3 energy=-0.14811394331172606 pbc="F F F"
Tm       0.00000000       0.00000000       0.00000000       0.00000000       0.00000000      -8.98010349
Tm       0.00000000       0.00000000       2.17878788       0.00000000       0.00000000       8.98010349
2
Properties=species:S:1:pos:R:3:forces:R:3 energy=-0.6186766050299451 pbc="F F F"
Tm       0.00000000       0.00000000       0.00000000       0.00000000       0.00000000      -7.10018063
Tm       0.00000000       0.00000000       2.23757576       0.00000000       0.00000000       7.10018063
2
Properties=species:S:1:pos:R:3:forces:R:3 energy=-0.9912549060652377 pbc="F F F"
Tm       0.00000000       0.00000000       0.00000000       0.00000000       0.00000000      -5.64414644
Tm       0.00000000       0.00000000       2.29636364       0.00000000       0.00000000       5.64414644
2
Properties=species:S:1:pos:R:3:forces:R:3 energy=-1.289883049012334 pbc="F F F"
Tm       0.00000000       0.00000000       0.00000000       0.00000000       0.00000000      -4.57372522
Tm       0.00000000       0.00000000       2.35515152       0.00000000       0.00000000       4.57372522
2
Properties=species:S:1:pos:R:3:forces:R:3 energy=-1.5348549347165095 pbc="F F F"
Tm       0.00000000       0.00000000       0.00000000       0.00000000       0.00000000      -3.80045104
Tm       0.00000000       0.00000000       2.41393939       0.00000000       0.00000000       3.80045104
2
Properties=species:S:1:pos:R:3:forces:R:3 energy=-1.7402875802480136 pbc="F F F"
Tm       0.00000000       0.00000000       0.00000000       0.00000000       0.00000000      -3.20953894
Tm       0.00000000       0.00000000       2.47272727       0.00000000       0.00000000       3.20953894
2
Properties=species:S:1:pos:R:3:forces:R:3 energy=-1.9138090238143326 pbc="F F F"
Tm       0.00000000       0.00000000       0.00000000       0.00000000       0.00000000      -2.70140743
Tm       0.00000000       0.00000000       2.53151515       0.00000000       0.00000000       2.70140743
2
Properties=species:S:1:pos:R:3:forces:R:3 energy=-2.0584099608891195 pbc="F F F"
Tm       0.00000000       0.00000000       0.00000000       0.00000000       0.00000000      -2.22051287
Tm       0.00000000       0.00000000       2.59030303       0.00000000       0.00000000       2.22051287
2
Properties=species:S:1:pos:R:3:forces:R:3 energy=-2.175201676468527 pbc="F F F"
Tm       0.00000000       0.00000000       0.00000000       0.00000000       0.00000000      -1.75646818
Tm       0.00000000       0.00000000       2.64909091       0.00000000       0.00000000       1.75646818
2
Properties=species:S:1:pos:R:3:forces:R:3 energy=-2.2655590958120406 pbc="F F F"
Tm       0.00000000       0.00000000       0.00000000       0.00000000       0.00000000      -1.32474101
Tm       0.00000000       0.00000000       2.70787879       0.00000000       0.00000000       1.32474101
2
Properties=species:S:1:pos:R:3:forces:R:3 energy=-2.3319797432265363 pbc="F F F"
Tm       0.00000000       0.00000000       0.00000000       0.00000000       0.00000000      -0.94479674
Tm       0.00000000       0.00000000       2.76666667       0.00000000       0.00000000       0.94479674
2
Properties=species:S:1:pos:R:3:forces:R:3 energy=-2.377882793217967 pbc="F F F"
Tm       0.00000000       0.00000000       0.00000000       0.00000000       0.00000000      -0.62763757
Tm       0.00000000       0.00000000       2.82545455       0.00000000       0.00000000       0.62763757
2
Properties=species:S:1:pos:R:3:forces:R:3 energy=-2.407007025565262 pbc="F F F"
Tm       0.00000000       0.00000000       0.00000000       0.00000000       0.00000000      -0.37307185
Tm       0.00000000       0.00000000       2.88424242       0.00000000       0.00000000       0.37307185
2
Properties=species:S:1:pos:R:3:forces:R:3 energy=-2.4228022567294802 pbc="F F F"
Tm       0.00000000       0.00000000       0.00000000       0.00000000       0.00000000      -0.17219076
Tm       0.00000000       0.00000000       2.94303030       0.00000000       0.00000000       0.17219076
2
Properties=species:S:1:pos:R:3:forces:R:3 energy=-2.428042886343759 pbc="F F F"
Tm       0.00000000       0.00000000       0.00000000       0.00000000       0.00000000      -0.01168805
Tm       0.00000000       0.00000000       3.00181818       0.00000000       0.00000000       0.01168805
2
Properties=species:S:1:pos:R:3:forces:R:3 energy=-2.4247136336933846 pbc="F F F"
Tm       0.00000000       0.00000000       0.00000000       0.00000000       0.00000000       0.12123360
Tm       0.00000000       0.00000000       3.06060606       0.00000000       0.00000000      -0.12123360
2
Properties=species:S:1:pos:R:3:forces:R:3 energy=-2.414157789722485 pbc="F F F"
Tm       0.00000000       0.00000000       0.00000000       0.00000000       0.00000000       0.23514788
Tm       0.00000000       0.00000000       3.11939394       0.00000000       0.00000000      -0.23514788
2
Properties=species:S:1:pos:R:3:forces:R:3 energy=-2.3973646674770506 pbc="F F F"
Tm       0.00000000       0.00000000       0.00000000       0.00000000       0.00000000       0.33373207
Tm       0.00000000       0.00000000       3.17818182       0.00000000       0.00000000      -0.33373207
2
Properties=species:S:1:pos:R:3:forces:R:3 energy=-2.3752009885039014 pbc="F F F"
Tm       0.00000000       0.00000000       0.00000000       0.00000000       0.00000000       0.41793850
Tm       0.00000000       0.00000000       3.23696970       0.00000000       0.00000000      -0.41793850
2
Properties=species:S:1:pos:R:3:forces:R:3 energy=-2.348488197826503 pbc="F F F"
Tm       0.00000000       0.00000000       0.00000000       0.00000000       0.00000000       0.48877466
Tm       0.00000000       0.00000000       3.29575758       0.00000000       0.00000000      -0.48877466
2
Properties=species:S:1:pos:R:3:forces:R:3 energy=-2.3179523920436123 pbc="F F F"
Tm       0.00000000       0.00000000       0.00000000       0.00000000       0.00000000       0.54843551
Tm       0.00000000       0.00000000       3.35454545       0.00000000       0.00000000      -0.54843551
2
Properties=species:S:1:pos:R:3:forces:R:3 energy=-2.2841718712416164 pbc="F F F"
Tm       0.00000000       0.00000000       0.00000000       0.00000000       0.00000000       0.59956414
Tm       0.00000000       0.00000000       3.41333333       0.00000000       0.00000000      -0.59956414
2
Properties=species:S:1:pos:R:3:forces:R:3 energy=-2.24758402379101 pbc="F F F"
Tm       0.00000000       0.00000000       0.00000000       0.00000000       0.00000000       0.64422297
Tm       0.00000000       0.00000000       3.47212121       0.00000000       0.00000000      -0.64422297
2
Properties=species:S:1:pos:R:3:forces:R:3 energy=-2.2085200784381427 pbc="F F F"
Tm       0.00000000       0.00000000       0.00000000       0.00000000       0.00000000       0.68419445
Tm       0.00000000       0.00000000       3.53090909       0.00000000       0.00000000      -0.68419445
2
Properties=species:S:1:pos:R:3:forces:R:3 energy=-2.1671773590510273 pbc="F F F"
Tm       0.00000000       0.00000000       0.00000000       0.00000000       0.00000000       0.72231084
Tm       0.00000000       0.00000000       3.58969697       0.00000000       0.00000000      -0.72231084
2
Properties=species:S:1:pos:R:3:forces:R:3 energy=-2.1235441724315343 pbc="F F F"
Tm       0.00000000       0.00000000       0.00000000       0.00000000       0.00000000       0.76294953
Tm       0.00000000       0.00000000       3.64848485       0.00000000       0.00000000      -0.76294953
2
Properties=species:S:1:pos:R:3:forces:R:3 energy=-2.077334924447754 pbc="F F F"
Tm       0.00000000       0.00000000       0.00000000       0.00000000       0.00000000       0.81055111
Tm       0.00000000       0.00000000       3.70727273       0.00000000       0.00000000      -0.81055111
2
Properties=species:S:1:pos:R:3:forces:R:3 energy=-2.028064791734666 pbc="F F F"
Tm       0.00000000       0.00000000       0.00000000       0.00000000       0.00000000       0.86707491
Tm       0.00000000       0.00000000       3.76606061       0.00000000       0.00000000      -0.86707491
2
Properties=species:S:1:pos:R:3:forces:R:3 energy=-1.9752552678516453 pbc="F F F"
Tm       0.00000000       0.00000000       0.00000000       0.00000000       0.00000000       0.93025541
Tm       0.00000000       0.00000000       3.82484848       0.00000000       0.00000000      -0.93025541
2
Properties=species:S:1:pos:R:3:forces:R:3 energy=-1.9186782492225667 pbc="F F F"
Tm       0.00000000       0.00000000       0.00000000       0.00000000       0.00000000       0.99393463
Tm       0.00000000       0.00000000       3.88363636       0.00000000       0.00000000      -0.99393463
2
Properties=species:S:1:pos:R:3:forces:R:3 energy=-1.8585383556567294 pbc="F F F"
Tm       0.00000000       0.00000000       0.00000000       0.00000000       0.00000000       1.05017924
Tm       0.00000000       0.00000000       3.94242424       0.00000000       0.00000000      -1.05017924
2
Properties=species:S:1:pos:R:3:forces:R:3 energy=-1.7954880330827172 pbc="F F F"
Tm       0.00000000       0.00000000       0.00000000       0.00000000       0.00000000       1.09201634
Tm       0.00000000       0.00000000       4.00121212       0.00000000       0.00000000      -1.09201634
2
Properties=species:S:1:pos:R:3:forces:R:3 energy=-1.7305074032558192 pbc="F F F"
Tm       0.00000000       0.00000000       0.00000000       0.00000000       0.00000000       1.11543167
Tm       0.00000000       0.00000000       4.06000000       0.00000000       0.00000000      -1.11543167
2
Properties=species:S:1:pos:R:3:forces:R:3 energy=-1.6647126068986546 pbc="F F F"
Tm       0.00000000       0.00000000       0.00000000       0.00000000       0.00000000       1.11996257
Tm       0.00000000       0.00000000       4.11878788       0.00000000       0.00000000      -1.11996257
2
Properties=species:S:1:pos:R:3:forces:R:3 energy=-1.5991514041191024 pbc="F F F"
Tm       0.00000000       0.00000000       0.00000000       0.00000000       0.00000000       1.10796595
Tm       0.00000000       0.00000000       4.17757576       0.00000000       0.00000000      -1.10796595
2
Properties=species:S:1:pos:R:3:forces:R:3 energy=-1.5346912749012787 pbc="F F F"
Tm       0.00000000       0.00000000       0.00000000       0.00000000       0.00000000       1.08319855
Tm       0.00000000       0.00000000       4.23636364       0.00000000       0.00000000      -1.08319855
2
Properties=species:S:1:pos:R:3:forces:R:3 energy=-1.4719677392946715 pbc="F F F"
Tm       0.00000000       0.00000000       0.00000000       0.00000000       0.00000000       1.04944491
Tm       0.00000000       0.00000000       4.29515152       0.00000000       0.00000000      -1.04944491
2
Properties=species:S:1:pos:R:3:forces:R:3 energy=-1.4114203966334495 pbc="F F F"
Tm       0.00000000       0.00000000       0.00000000       0.00000000       0.00000000       1.00966346
Tm       0.00000000       0.00000000       4.35393939       0.00000000       0.00000000      -1.00966346
2
Properties=species:S:1:pos:R:3:forces:R:3 energy=-1.3533385826943614 pbc="F F F"
Tm       0.00000000       0.00000000       0.00000000       0.00000000       0.00000000       0.96572208
Tm       0.00000000       0.00000000       4.41272727       0.00000000       0.00000000      -0.96572208
2
Properties=species:S:1:pos:R:3:forces:R:3 energy=-1.2979355253784313 pbc="F F F"
Tm       0.00000000       0.00000000       0.00000000       0.00000000       0.00000000       0.91862881
Tm       0.00000000       0.00000000       4.47151515       0.00000000       0.00000000      -0.91862881
2
Properties=species:S:1:pos:R:3:forces:R:3 energy=-1.245378943484509 pbc="F F F"
Tm       0.00000000       0.00000000       0.00000000       0.00000000       0.00000000       0.86898518
Tm       0.00000000       0.00000000       4.53030303       0.00000000       0.00000000      -0.86898518
2
Properties=species:S:1:pos:R:3:forces:R:3 energy=-1.1958029307923104 pbc="F F F"
Tm       0.00000000       0.00000000       0.00000000       0.00000000       0.00000000       0.81739211
Tm       0.00000000       0.00000000       4.58909091       0.00000000       0.00000000      -0.81739211
2
Properties=species:S:1:pos:R:3:forces:R:3 energy=-1.149295019270655 pbc="F F F"
Tm       0.00000000       0.00000000       0.00000000       0.00000000       0.00000000       0.76476747
Tm       0.00000000       0.00000000       4.64787879       0.00000000       0.00000000      -0.76476747
2
Properties=species:S:1:pos:R:3:forces:R:3 energy=-1.1058799286002226 pbc="F F F"
Tm       0.00000000       0.00000000       0.00000000       0.00000000       0.00000000       0.71235389
Tm       0.00000000       0.00000000       4.70666667       0.00000000       0.00000000      -0.71235389
2
Properties=species:S:1:pos:R:3:forces:R:3 energy=-1.0655082919761982 pbc="F F F"
Tm       0.00000000       0.00000000       0.00000000       0.00000000       0.00000000       0.66153979
Tm       0.00000000       0.00000000       4.76545455       0.00000000       0.00000000      -0.66153979
2
Properties=species:S:1:pos:R:3:forces:R:3 energy=-1.0280430763367079 pbc="F F F"
Tm       0.00000000       0.00000000       0.00000000       0.00000000       0.00000000       0.61348683
Tm       0.00000000       0.00000000       4.82424242       0.00000000       0.00000000      -0.61348683
2
Properties=species:S:1:pos:R:3:forces:R:3 energy=-0.9933135867548296 pbc="F F F"
Tm       0.00000000       0.00000000       0.00000000       0.00000000       0.00000000       0.56868720
Tm       0.00000000       0.00000000       4.88303030       0.00000000       0.00000000      -0.56868720
2
Properties=species:S:1:pos:R:3:forces:R:3 energy=-0.9611264020150116 pbc="F F F"
Tm       0.00000000       0.00000000       0.00000000       0.00000000       0.00000000       0.52662301
Tm       0.00000000       0.00000000       4.94181818       0.00000000       0.00000000      -0.52662301
2
Properties=species:S:1:pos:R:3:forces:R:3 energy=-0.9313638731644625 pbc="F F F"
Tm       0.00000000       0.00000000       0.00000000       0.00000000       0.00000000       0.48609927
Tm       0.00000000       0.00000000       5.00060606       0.00000000       0.00000000      -0.48609927
2
Properties=species:S:1:pos:R:3:forces:R:3 energy=-0.9039520029452611 pbc="F F F"
Tm       0.00000000       0.00000000       0.00000000       0.00000000       0.00000000       0.44671232
Tm       0.00000000       0.00000000       5.05939394       0.00000000       0.00000000      -0.44671232
2
Properties=species:S:1:pos:R:3:forces:R:3 energy=-0.8787559323415368 pbc="F F F"
Tm       0.00000000       0.00000000       0.00000000       0.00000000       0.00000000       0.41187495
Tm       0.00000000       0.00000000       5.11818182       0.00000000       0.00000000      -0.41187495
2
Properties=species:S:1:pos:R:3:forces:R:3 energy=-0.8552656858852802 pbc="F F F"
Tm       0.00000000       0.00000000       0.00000000       0.00000000       0.00000000       0.39040941
Tm       0.00000000       0.00000000       5.17696970       0.00000000       0.00000000      -0.39040941
2
Properties=species:S:1:pos:R:3:forces:R:3 energy=-0.8324181173272645 pbc="F F F"
Tm       0.00000000       0.00000000       0.00000000       0.00000000       0.00000000       0.39068052
Tm       0.00000000       0.00000000       5.23575758       0.00000000       0.00000000      -0.39068052
2
Properties=species:S:1:pos:R:3:forces:R:3 energy=-0.809010318781659 pbc="F F F"
Tm       0.00000000       0.00000000       0.00000000       0.00000000       0.00000000       0.40658674
Tm       0.00000000       0.00000000       5.29454545       0.00000000       0.00000000      -0.40658674
2
Properties=species:S:1:pos:R:3:forces:R:3 energy=-0.7847877009325581 pbc="F F F"
Tm       0.00000000       0.00000000       0.00000000       0.00000000       0.00000000       0.41366479
Tm       0.00000000       0.00000000       5.35333333       0.00000000       0.00000000      -0.41366479
2
Properties=species:S:1:pos:R:3:forces:R:3 energy=-0.7609583989573737 pbc="F F F"
Tm       0.00000000       0.00000000       0.00000000       0.00000000       0.00000000       0.39216107
Tm       0.00000000       0.00000000       5.41212121       0.00000000       0.00000000      -0.39216107
2
Properties=species:S:1:pos:R:3:forces:R:3 energy=-0.7390222341581153 pbc="F F F"
Tm       0.00000000       0.00000000       0.00000000       0.00000000       0.00000000       0.35424533
Tm       0.00000000       0.00000000       5.47090909       0.00000000       0.00000000      -0.35424533
2
Properties=species:S:1:pos:R:3:forces:R:3 energy=-0.7188107813605972 pbc="F F F"
Tm       0.00000000       0.00000000       0.00000000       0.00000000       0.00000000       0.34143788
Tm       0.00000000       0.00000000       5.52969697       0.00000000       0.00000000      -0.34143788
2
Properties=species:S:1:pos:R:3:forces:R:3 energy=-0.6976243025775816 pbc="F F F"
Tm       0.00000000       0.00000000       0.00000000       0.00000000       0.00000000       0.39083001
Tm       0.00000000       0.00000000       5.58848485       0.00000000       0.00000000      -0.39083001
2
Properties=species:S:1:pos:R:3:forces:R:3 energy=-0.6718401987708691 pbc="F F F"
Tm       0.00000000       0.00000000       0.00000000       0.00000000       0.00000000       0.49067166
Tm       0.00000000       0.00000000       5.64727273       0.00000000       0.00000000      -0.49067166
2
Properties=species:S:1:pos:R:3:forces:R:3 energy=-0.6403469710690554 pbc="F F F"
Tm       0.00000000       0.00000000       0.00000000       0.00000000       0.00000000       0.56913948
Tm       0.00000000       0.00000000       5.70606061       0.00000000       0.00000000      -0.56913948
2
Properties=species:S:1:pos:R:3:forces:R:3 energy=-0.6068435923168537 pbc="F F F"
Tm       0.00000000       0.00000000       0.00000000       0.00000000       0.00000000       0.54823744
Tm       0.00000000       0.00000000       5.76484848       0.00000000       0.00000000      -0.54823744
2
Properties=species:S:1:pos:R:3:forces:R:3 energy=-0.5780927854563557 pbc="F F F"
Tm       0.00000000       0.00000000       0.00000000       0.00000000       0.00000000       0.41541618
Tm       0.00000000       0.00000000       5.82363636       0.00000000       0.00000000      -0.41541618
2
Properties=species:S:1:pos:R:3:forces:R:3 energy=-0.5590627301268131 pbc="F F F"
Tm       0.00000000       0.00000000       0.00000000       0.00000000       0.00000000       0.23360106
Tm       0.00000000       0.00000000       5.88242424       0.00000000       0.00000000      -0.23360106
2
Properties=species:S:1:pos:R:3:forces:R:3 energy=-0.5499513482915581 pbc="F F F"
Tm       0.00000000       0.00000000       0.00000000       0.00000000       0.00000000       0.08675675
Tm       0.00000000       0.00000000       5.94121212       0.00000000       0.00000000      -0.08675675
2
Properties=species:S:1:pos:R:3:forces:R:3 energy=-0.5470303676125388 pbc="F F F"
Tm       0.00000000       0.00000000       0.00000000       0.00000000       0.00000000       0.03099215
Tm       0.00000000       0.00000000       6.00000000       0.00000000       0.00000000      -0.03099215
