2
Properties=species:S:1:pos:R:3:forces:R:3 energy=12139.435907852383 pbc="F F F"
V        0.00000000       0.00000000       0.00000000       0.00000000       0.00000000 -267666.93750000
V        0.00000000       0.00000000       0.10000000       0.00000000       0.00000000  267666.93750000
2
Properties=species:S:1:pos:R:3:forces:R:3 energy=3935.4764351961326 pbc="F F F"
V        0.00000000       0.00000000       0.00000000       0.00000000       0.00000000  -64676.14062500
V        0.00000000       0.00000000       0.15959596       0.00000000       0.00000000   64676.14062500
2
Properties=species:S:1:pos:R:3:forces:R:3 energy=1630.8353219148828 pbc="F F F"
V        0.00000000       0.00000000       0.00000000       0.00000000       0.00000000  -21832.40625000
V        0.00000000       0.00000000       0.21919192       0.00000000       0.00000000   21832.40625000
2
Properties=species:S:1:pos:R:3:forces:R:3 energy=780.9829049226952 pbc="F F F"
V        0.00000000       0.00000000       0.00000000       0.00000000       0.00000000   -8940.18457031
V        0.00000000       0.00000000       0.27878788       0.00000000       0.00000000    8940.18457031
2
Properties=species:S:1:pos:R:3:forces:R:3 energy=412.4151253880152 pbc="F F F"
V        0.00000000       0.00000000       0.00000000       0.00000000       0.00000000   -4139.83642578
V        0.00000000       0.00000000       0.33838384       0.00000000       0.00000000    4139.83642578
2
Properties=species:S:1:pos:R:3:forces:R:3 energy=235.06908656965587 pbc="F F F"
V        0.00000000       0.00000000       0.00000000       0.00000000       0.00000000   -2079.31542969
V        0.00000000       0.00000000       0.39797980       0.00000000       0.00000000    2079.31542969
2
Properties=species:S:1:pos:R:3:forces:R:3 energy=143.59159329619433 pbc="F F F"
V        0.00000000       0.00000000       0.00000000       0.00000000       0.00000000   -1104.68237305
V        0.00000000       0.00000000       0.45757576       0.00000000       0.00000000    1104.68237305
2
Properties=species:S:1:pos:R:3:forces:R:3 energy=94.0512338244666 pbc="F F F"
V        0.00000000       0.00000000       0.00000000       0.00000000       0.00000000    -611.00311279
V        0.00000000       0.00000000       0.51717172       0.00000000       0.00000000     611.00311279
2
Properties=species:S:1:pos:R:3:forces:R:3 energy=66.27250156267579 pbc="F F F"
V        0.00000000       0.00000000       0.00000000       0.00000000       0.00000000    -347.57870483
V        0.00000000       0.00000000       0.57676768       0.00000000       0.00000000     347.57870483
2
Properties=species:S:1:pos:R:3:forces:R:3 energy=50.34756725149648 pbc="F F F"
V        0.00000000       0.00000000       0.00000000       0.00000000       0.00000000    -200.48904419
V        0.00000000       0.00000000       0.63636364       0.00000000       0.00000000     200.48904419
2
Properties=species:S:1:pos:R:3:forces:R:3 energy=41.17109564899736 pbc="F F F"
V        0.00000000       0.00000000       0.00000000       0.00000000       0.00000000    -114.97672272
V        0.00000000       0.00000000       0.69595960       0.00000000       0.00000000     114.97672272
2
Properties=species:S:1:pos:R:3:forces:R:3 energy=35.93417260862196 pbc="F F F"
V        0.00000000       0.00000000       0.00000000       0.00000000       0.00000000     -65.61489105
V        0.00000000       0.00000000       0.75555556       0.00000000       0.00000000      65.61489105
2
Properties=species:S:1:pos:R:3:forces:R:3 energy=32.86345982517049 pbc="F F F"
V        0.00000000       0.00000000       0.00000000       0.00000000       0.00000000     -40.84654617
V        0.00000000       0.00000000       0.81515152       0.00000000       0.00000000      40.84654617
2
Properties=species:S:1:pos:R:3:forces:R:3 energy=30.72891774009918 pbc="F F F"
V        0.00000000       0.00000000       0.00000000       0.00000000       0.00000000     -33.09979630
V        0.00000000       0.00000000       0.87474747       0.00000000       0.00000000      33.09979630
2
Properties=species:S:1:pos:R:3:forces:R:3 energy=28.689741337710977 pbc="F F F"
V        0.00000000       0.00000000       0.00000000       0.00000000       0.00000000     -36.91279221
V        0.00000000       0.00000000       0.93434343       0.00000000       0.00000000      36.91279221
2
Properties=species:S:1:pos:R:3:forces:R:3 energy=26.174460401735267 pbc="F F F"
V        0.00000000       0.00000000       0.00000000       0.00000000       0.00000000     -48.52396011
V        0.00000000       0.00000000       0.99393939       0.00000000       0.00000000      48.52396011
2
Properties=species:S:1:pos:R:3:forces:R:3 energy=22.82003978716648 pbc="F F F"
V        0.00000000       0.00000000       0.00000000       0.00000000       0.00000000     -64.43184662
V        0.00000000       0.00000000       1.05353535       0.00000000       0.00000000      64.43184662
2
Properties=species:S:1:pos:R:3:forces:R:3 energy=18.492301414746898 pbc="F F F"
V        0.00000000       0.00000000       0.00000000       0.00000000       0.00000000     -80.46665955
V        0.00000000       0.00000000       1.11313131       0.00000000       0.00000000      80.46665955
2
Properties=species:S:1:pos:R:3:forces:R:3 energy=13.311158474371833 pbc="F F F"
V        0.00000000       0.00000000       0.00000000       0.00000000       0.00000000     -92.35559082
V        0.00000000       0.00000000       1.17272727       0.00000000       0.00000000      92.35559082
2
Properties=species:S:1:pos:R:3:forces:R:3 energy=7.6600353494855655 pbc="F F F"
V        0.00000000       0.00000000       0.00000000       0.00000000       0.00000000     -95.35960388
V        0.00000000       0.00000000       1.23232323       0.00000000       0.00000000      95.35960388
2
Properties=species:S:1:pos:R:3:forces:R:3 energy=2.218972519962409 pbc="F F F"
V        0.00000000       0.00000000       0.00000000       0.00000000       0.00000000     -84.82872772
V        0.00000000       0.00000000       1.29191919       0.00000000       0.00000000      84.82872772
2
Properties=species:S:1:pos:R:3:forces:R:3 energy=-2.227853518837926 pbc="F F F"
V        0.00000000       0.00000000       0.00000000       0.00000000       0.00000000     -63.47177887
V        0.00000000       0.00000000       1.35151515       0.00000000       0.00000000      63.47177887
2
Properties=species:S:1:pos:R:3:forces:R:3 energy=-5.354748034848404 pbc="F F F"
V        0.00000000       0.00000000       0.00000000       0.00000000       0.00000000     -42.23009109
V        0.00000000       0.00000000       1.41111111       0.00000000       0.00000000      42.23009109
2
Properties=species:S:1:pos:R:3:forces:R:3 energy=-7.372891995451894 pbc="F F F"
V        0.00000000       0.00000000       0.00000000       0.00000000       0.00000000     -26.40106392
V        0.00000000       0.00000000       1.47070707       0.00000000       0.00000000      26.40106392
2
Properties=species:S:1:pos:R:3:forces:R:3 energy=-8.596548522711881 pbc="F F F"
V        0.00000000       0.00000000       0.00000000       0.00000000       0.00000000     -15.36993504
V        0.00000000       0.00000000       1.53030303       0.00000000       0.00000000      15.36993504
2
Properties=species:S:1:pos:R:3:forces:R:3 energy=-9.279412393348442 pbc="F F F"
V        0.00000000       0.00000000       0.00000000       0.00000000       0.00000000      -8.08597183
V        0.00000000       0.00000000       1.58989899       0.00000000       0.00000000       8.08597183
2
Properties=species:S:1:pos:R:3:forces:R:3 energy=-9.614002980686344 pbc="F F F"
V        0.00000000       0.00000000       0.00000000       0.00000000       0.00000000      -3.50987220
V        0.00000000       0.00000000       1.64949495       0.00000000       0.00000000       3.50987220
2
Properties=species:S:1:pos:R:3:forces:R:3 energy=-9.733188696714175 pbc="F F F"
V        0.00000000       0.00000000       0.00000000       0.00000000       0.00000000      -0.72497016
V        0.00000000       0.00000000       1.70909091       0.00000000       0.00000000       0.72497016
2
Properties=species:S:1:pos:R:3:forces:R:3 energy=-9.722309933603908 pbc="F F F"
V        0.00000000       0.00000000       0.00000000       0.00000000       0.00000000       0.95010448
V        0.00000000       0.00000000       1.76868687       0.00000000       0.00000000      -0.95010448
2
Properties=species:S:1:pos:R:3:forces:R:3 energy=-9.632887694849797 pbc="F F F"
V        0.00000000       0.00000000       0.00000000       0.00000000       0.00000000       1.96582723
V        0.00000000       0.00000000       1.82828283       0.00000000       0.00000000      -1.96582723
2
Properties=species:S:1:pos:R:3:forces:R:3 energy=-9.496515480603787 pbc="F F F"
V        0.00000000       0.00000000       0.00000000       0.00000000       0.00000000       2.54793620
V        0.00000000       0.00000000       1.88787879       0.00000000       0.00000000      -2.54793620
2
Properties=species:S:1:pos:R:3:forces:R:3 energy=-9.336118398333234 pbc="F F F"
V        0.00000000       0.00000000       0.00000000       0.00000000       0.00000000       2.78039122
V        0.00000000       0.00000000       1.94747475       0.00000000       0.00000000      -2.78039122
2
Properties=species:S:1:pos:R:3:forces:R:3 energy=-9.171160845481625 pbc="F F F"
V        0.00000000       0.00000000       0.00000000       0.00000000       0.00000000       2.70942712
V        0.00000000       0.00000000       2.00707071       0.00000000       0.00000000      -2.70942712
2
Properties=species:S:1:pos:R:3:forces:R:3 energy=-9.017966775984469 pbc="F F F"
V        0.00000000       0.00000000       0.00000000       0.00000000       0.00000000       2.39783788
V        0.00000000       0.00000000       2.06666667       0.00000000       0.00000000      -2.39783788
2
Properties=species:S:1:pos:R:3:forces:R:3 energy=-8.888559480779785 pbc="F F F"
V        0.00000000       0.00000000       0.00000000       0.00000000       0.00000000       1.92524815
V        0.00000000       0.00000000       2.12626263       0.00000000       0.00000000      -1.92524815
2
Properties=species:S:1:pos:R:3:forces:R:3 energy=-8.789976320143083 pbc="F F F"
V        0.00000000       0.00000000       0.00000000       0.00000000       0.00000000       1.37803662
V        0.00000000       0.00000000       2.18585859       0.00000000       0.00000000      -1.37803662
2
Properties=species:S:1:pos:R:3:forces:R:3 energy=-8.724070387460396 pbc="F F F"
V        0.00000000       0.00000000       0.00000000       0.00000000       0.00000000       0.84239894
V        0.00000000       0.00000000       2.24545455       0.00000000       0.00000000      -0.84239894
2
Properties=species:S:1:pos:R:3:forces:R:3 energy=-8.687875882901636 pbc="F F F"
V        0.00000000       0.00000000       0.00000000       0.00000000       0.00000000       0.39111051
V        0.00000000       0.00000000       2.30505051       0.00000000       0.00000000      -0.39111051
2
Properties=species:S:1:pos:R:3:forces:R:3 energy=-8.67483191403625 pbc="F F F"
V        0.00000000       0.00000000       0.00000000       0.00000000       0.00000000       0.07078920
V        0.00000000       0.00000000       2.36464646       0.00000000       0.00000000      -0.07078920
2
Properties=species:S:1:pos:R:3:forces:R:3 energy=-8.676473846642335 pbc="F F F"
V        0.00000000       0.00000000       0.00000000       0.00000000       0.00000000      -0.10114068
V        0.00000000       0.00000000       2.42424242       0.00000000       0.00000000       0.10114068
2
Properties=species:S:1:pos:R:3:forces:R:3 energy=-8.68408591836904 pbc="F F F"
V        0.00000000       0.00000000       0.00000000       0.00000000       0.00000000      -0.13276908
V        0.00000000       0.00000000       2.48383838       0.00000000       0.00000000       0.13276908
2
Properties=species:S:1:pos:R:3:forces:R:3 energy=-8.690068838875813 pbc="F F F"
V        0.00000000       0.00000000       0.00000000       0.00000000       0.00000000      -0.05267829
V        0.00000000       0.00000000       2.54343434       0.00000000       0.00000000       0.05267829
2
Properties=species:S:1:pos:R:3:forces:R:3 energy=-8.689002402661188 pbc="F F F"
V        0.00000000       0.00000000       0.00000000       0.00000000       0.00000000       0.09572213
V        0.00000000       0.00000000       2.60303030       0.00000000       0.00000000      -0.09572213
2
Properties=species:S:1:pos:R:3:forces:R:3 energy=-8.678303328517188 pbc="F F F"
V        0.00000000       0.00000000       0.00000000       0.00000000       0.00000000       0.26217526
V        0.00000000       0.00000000       2.66262626       0.00000000       0.00000000      -0.26217526
2
Properties=species:S:1:pos:R:3:forces:R:3 energy=-8.65831094449798 pbc="F F F"
V        0.00000000       0.00000000       0.00000000       0.00000000       0.00000000       0.40116465
V        0.00000000       0.00000000       2.72222222       0.00000000       0.00000000      -0.40116465
2
Properties=species:S:1:pos:R:3:forces:R:3 energy=-8.631578609414989 pbc="F F F"
V        0.00000000       0.00000000       0.00000000       0.00000000       0.00000000       0.48637652
V        0.00000000       0.00000000       2.78181818       0.00000000       0.00000000      -0.48637652
2
Properties=species:S:1:pos:R:3:forces:R:3 energy=-8.601309417260392 pbc="F F F"
V        0.00000000       0.00000000       0.00000000       0.00000000       0.00000000       0.52388144
V        0.00000000       0.00000000       2.84141414       0.00000000       0.00000000      -0.52388144
2
Properties=species:S:1:pos:R:3:forces:R:3 energy=-8.569389971509105 pbc="F F F"
V        0.00000000       0.00000000       0.00000000       0.00000000       0.00000000       0.54834718
V        0.00000000       0.00000000       2.90101010       0.00000000       0.00000000      -0.54834718
2
Properties=species:S:1:pos:R:3:forces:R:3 energy=-8.53568224548609 pbc="F F F"
V        0.00000000       0.00000000       0.00000000       0.00000000       0.00000000       0.58466232
V        0.00000000       0.00000000       2.96060606       0.00000000       0.00000000      -0.58466232
2
Properties=species:S:1:pos:R:3:forces:R:3 energy=-8.499709215404042 pbc="F F F"
V        0.00000000       0.00000000       0.00000000       0.00000000       0.00000000       0.62065327
V        0.00000000       0.00000000       3.02020202       0.00000000       0.00000000      -0.62065327
2
Properties=species:S:1:pos:R:3:forces:R:3 energy=-8.462033708385066 pbc="F F F"
V        0.00000000       0.00000000       0.00000000       0.00000000       0.00000000       0.64110595
V        0.00000000       0.00000000       3.07979798       0.00000000       0.00000000      -0.64110595
2
Properties=species:S:1:pos:R:3:forces:R:3 energy=-8.42349522182404 pbc="F F F"
V        0.00000000       0.00000000       0.00000000       0.00000000       0.00000000       0.65154207
V        0.00000000       0.00000000       3.13939394       0.00000000       0.00000000      -0.65154207
2
Properties=species:S:1:pos:R:3:forces:R:3 energy=-8.384371802688394 pbc="F F F"
V        0.00000000       0.00000000       0.00000000       0.00000000       0.00000000       0.66183048
V        0.00000000       0.00000000       3.19898990       0.00000000       0.00000000      -0.66183048
2
Properties=species:S:1:pos:R:3:forces:R:3 energy=-8.3445601462745 pbc="F F F"
V        0.00000000       0.00000000       0.00000000       0.00000000       0.00000000       0.67448652
V        0.00000000       0.00000000       3.25858586       0.00000000       0.00000000      -0.67448652
2
Properties=species:S:1:pos:R:3:forces:R:3 energy=-8.303976733342221 pbc="F F F"
V        0.00000000       0.00000000       0.00000000       0.00000000       0.00000000       0.68725204
V        0.00000000       0.00000000       3.31818182       0.00000000       0.00000000      -0.68725204
2
Properties=species:S:1:pos:R:3:forces:R:3 energy=-8.262689465229375 pbc="F F F"
V        0.00000000       0.00000000       0.00000000       0.00000000       0.00000000       0.69781131
V        0.00000000       0.00000000       3.37777778       0.00000000       0.00000000      -0.69781131
2
Properties=species:S:1:pos:R:3:forces:R:3 energy=-8.220864386735073 pbc="F F F"
V        0.00000000       0.00000000       0.00000000       0.00000000       0.00000000       0.70531893
V        0.00000000       0.00000000       3.43737374       0.00000000       0.00000000      -0.70531893
2
Properties=species:S:1:pos:R:3:forces:R:3 energy=-8.178685195550955 pbc="F F F"
V        0.00000000       0.00000000       0.00000000       0.00000000       0.00000000       0.70961148
V        0.00000000       0.00000000       3.49696970       0.00000000       0.00000000      -0.70961148
2
Properties=species:S:1:pos:R:3:forces:R:3 energy=-8.136355335072688 pbc="F F F"
V        0.00000000       0.00000000       0.00000000       0.00000000       0.00000000       0.71028060
V        0.00000000       0.00000000       3.55656566       0.00000000       0.00000000      -0.71028060
2
Properties=species:S:1:pos:R:3:forces:R:3 energy=-8.09411429357882 pbc="F F F"
V        0.00000000       0.00000000       0.00000000       0.00000000       0.00000000       0.70648861
V        0.00000000       0.00000000       3.61616162       0.00000000       0.00000000      -0.70648861
2
Properties=species:S:1:pos:R:3:forces:R:3 energy=-8.05225469568489 pbc="F F F"
V        0.00000000       0.00000000       0.00000000       0.00000000       0.00000000       0.69733745
V        0.00000000       0.00000000       3.67575758       0.00000000       0.00000000      -0.69733745
2
Properties=species:S:1:pos:R:3:forces:R:3 energy=-8.011115761335573 pbc="F F F"
V        0.00000000       0.00000000       0.00000000       0.00000000       0.00000000       0.68225414
V        0.00000000       0.00000000       3.73535354       0.00000000       0.00000000      -0.68225414
2
Properties=species:S:1:pos:R:3:forces:R:3 energy=-7.971055569894102 pbc="F F F"
V        0.00000000       0.00000000       0.00000000       0.00000000       0.00000000       0.66115087
V        0.00000000       0.00000000       3.79494949       0.00000000       0.00000000      -0.66115087
2
Properties=species:S:1:pos:R:3:forces:R:3 energy=-7.932424053150484 pbc="F F F"
V        0.00000000       0.00000000       0.00000000       0.00000000       0.00000000       0.63440865
V        0.00000000       0.00000000       3.85454545       0.00000000       0.00000000      -0.63440865
2
Properties=species:S:1:pos:R:3:forces:R:3 energy=-7.895536170399561 pbc="F F F"
V        0.00000000       0.00000000       0.00000000       0.00000000       0.00000000       0.60281068
V        0.00000000       0.00000000       3.91414141       0.00000000       0.00000000      -0.60281068
2
Properties=species:S:1:pos:R:3:forces:R:3 energy=-7.860648830188086 pbc="F F F"
V        0.00000000       0.00000000       0.00000000       0.00000000       0.00000000       0.56744337
V        0.00000000       0.00000000       3.97373737       0.00000000       0.00000000      -0.56744337
2
Properties=species:S:1:pos:R:3:forces:R:3 energy=-7.827950442582923 pbc="F F F"
V        0.00000000       0.00000000       0.00000000       0.00000000       0.00000000       0.52958757
V        0.00000000       0.00000000       4.03333333       0.00000000       0.00000000      -0.52958757
2
Properties=species:S:1:pos:R:3:forces:R:3 energy=-7.797549693818819 pbc="F F F"
V        0.00000000       0.00000000       0.00000000       0.00000000       0.00000000       0.49053508
V        0.00000000       0.00000000       4.09292929       0.00000000       0.00000000      -0.49053508
2
Properties=species:S:1:pos:R:3:forces:R:3 energy=-7.7694834084479485 pbc="F F F"
V        0.00000000       0.00000000       0.00000000       0.00000000       0.00000000       0.45143622
V        0.00000000       0.00000000       4.15252525       0.00000000       0.00000000      -0.45143622
2
Properties=species:S:1:pos:R:3:forces:R:3 energy=-7.743725541217659 pbc="F F F"
V        0.00000000       0.00000000       0.00000000       0.00000000       0.00000000       0.41317421
V        0.00000000       0.00000000       4.21212121       0.00000000       0.00000000      -0.41317421
2
Properties=species:S:1:pos:R:3:forces:R:3 energy=-7.720207406971736 pbc="F F F"
V        0.00000000       0.00000000       0.00000000       0.00000000       0.00000000       0.37634128
V        0.00000000       0.00000000       4.27171717       0.00000000       0.00000000      -0.37634128
2
Properties=species:S:1:pos:R:3:forces:R:3 energy=-7.6988330361379695 pbc="F F F"
V        0.00000000       0.00000000       0.00000000       0.00000000       0.00000000       0.34131086
V        0.00000000       0.00000000       4.33131313       0.00000000       0.00000000      -0.34131086
2
Properties=species:S:1:pos:R:3:forces:R:3 energy=-7.679484884102761 pbc="F F F"
V        0.00000000       0.00000000       0.00000000       0.00000000       0.00000000       0.30836457
V        0.00000000       0.00000000       4.39090909       0.00000000       0.00000000      -0.30836457
2
Properties=species:S:1:pos:R:3:forces:R:3 energy=-7.662030202820409 pbc="F F F"
V        0.00000000       0.00000000       0.00000000       0.00000000       0.00000000       0.27783912
V        0.00000000       0.00000000       4.45050505       0.00000000       0.00000000      -0.27783912
2
Properties=species:S:1:pos:R:3:forces:R:3 energy=-7.646311459720442 pbc="F F F"
V        0.00000000       0.00000000       0.00000000       0.00000000       0.00000000       0.25021222
V        0.00000000       0.00000000       4.51010101       0.00000000       0.00000000      -0.25021222
2
Properties=species:S:1:pos:R:3:forces:R:3 energy=-7.632137228780286 pbc="F F F"
V        0.00000000       0.00000000       0.00000000       0.00000000       0.00000000       0.22608081
V        0.00000000       0.00000000       4.56969697       0.00000000       0.00000000      -0.22608081
2
Properties=species:S:1:pos:R:3:forces:R:3 energy=-7.6192823425807354 pbc="F F F"
V        0.00000000       0.00000000       0.00000000       0.00000000       0.00000000       0.20604810
V        0.00000000       0.00000000       4.62929293       0.00000000       0.00000000      -0.20604810
2
Properties=species:S:1:pos:R:3:forces:R:3 energy=-7.60748877161637 pbc="F F F"
V        0.00000000       0.00000000       0.00000000       0.00000000       0.00000000       0.19050817
V        0.00000000       0.00000000       4.68888889       0.00000000       0.00000000      -0.19050817
2
Properties=species:S:1:pos:R:3:forces:R:3 energy=-7.596486153635933 pbc="F F F"
V        0.00000000       0.00000000       0.00000000       0.00000000       0.00000000       0.17943916
V        0.00000000       0.00000000       4.74848485       0.00000000       0.00000000      -0.17943916
2
Properties=species:S:1:pos:R:3:forces:R:3 energy=-7.586023323579411 pbc="F F F"
V        0.00000000       0.00000000       0.00000000       0.00000000       0.00000000       0.17226169
V        0.00000000       0.00000000       4.80808081       0.00000000       0.00000000      -0.17226169
2
Properties=species:S:1:pos:R:3:forces:R:3 energy=-7.575898964204689 pbc="F F F"
V        0.00000000       0.00000000       0.00000000       0.00000000       0.00000000       0.16784579
V        0.00000000       0.00000000       4.86767677       0.00000000       0.00000000      -0.16784579
2
Properties=species:S:1:pos:R:3:forces:R:3 energy=-7.565992277384969 pbc="F F F"
V        0.00000000       0.00000000       0.00000000       0.00000000       0.00000000       0.16468263
V        0.00000000       0.00000000       4.92727273       0.00000000       0.00000000      -0.16468263
2
Properties=species:S:1:pos:R:3:forces:R:3 energy=-7.556276326045742 pbc="F F F"
V        0.00000000       0.00000000       0.00000000       0.00000000       0.00000000       0.16121991
V        0.00000000       0.00000000       4.98686869       0.00000000       0.00000000      -0.16121991
2
Properties=species:S:1:pos:R:3:forces:R:3 energy=-7.5468051437223975 pbc="F F F"
V        0.00000000       0.00000000       0.00000000       0.00000000       0.00000000       0.15638393
V        0.00000000       0.00000000       5.04646465       0.00000000       0.00000000      -0.15638393
2
Properties=species:S:1:pos:R:3:forces:R:3 energy=-7.537663514603155 pbc="F F F"
V        0.00000000       0.00000000       0.00000000       0.00000000       0.00000000       0.15026970
V        0.00000000       0.00000000       5.10606061       0.00000000       0.00000000      -0.15026970
2
Properties=species:S:1:pos:R:3:forces:R:3 energy=-7.528883717095703 pbc="F F F"
V        0.00000000       0.00000000       0.00000000       0.00000000       0.00000000       0.14465481
V        0.00000000       0.00000000       5.16565657       0.00000000       0.00000000      -0.14465481
2
Properties=species:S:1:pos:R:3:forces:R:3 energy=-7.520357716098007 pbc="F F F"
V        0.00000000       0.00000000       0.00000000       0.00000000       0.00000000       0.14217347
V        0.00000000       0.00000000       5.22525253       0.00000000       0.00000000      -0.14217347
2
Properties=species:S:1:pos:R:3:forces:R:3 energy=-7.511862006047864 pbc="F F F"
V        0.00000000       0.00000000       0.00000000       0.00000000       0.00000000       0.14335965
V        0.00000000       0.00000000       5.28484848       0.00000000       0.00000000      -0.14335965
2
Properties=species:S:1:pos:R:3:forces:R:3 energy=-7.503270912355905 pbc="F F F"
V        0.00000000       0.00000000       0.00000000       0.00000000       0.00000000       0.14446935
V        0.00000000       0.00000000       5.34444444       0.00000000       0.00000000      -0.14446935
2
Properties=species:S:1:pos:R:3:forces:R:3 energy=-7.4947420557175635 pbc="F F F"
V        0.00000000       0.00000000       0.00000000       0.00000000       0.00000000       0.14073899
V        0.00000000       0.00000000       5.40404040       0.00000000       0.00000000      -0.14073899
2
Properties=species:S:1:pos:R:3:forces:R:3 energy=-7.486590177167651 pbc="F F F"
V        0.00000000       0.00000000       0.00000000       0.00000000       0.00000000       0.13241459
V        0.00000000       0.00000000       5.46363636       0.00000000       0.00000000      -0.13241459
2
Properties=species:S:1:pos:R:3:forces:R:3 energy=-7.4789300218949135 pbc="F F F"
V        0.00000000       0.00000000       0.00000000       0.00000000       0.00000000       0.12572254
V        0.00000000       0.00000000       5.52323232       0.00000000       0.00000000      -0.12572254
2
Properties=species:S:1:pos:R:3:forces:R:3 energy=-7.471427569629619 pbc="F F F"
V        0.00000000       0.00000000       0.00000000       0.00000000       0.00000000       0.12784328
V        0.00000000       0.00000000       5.58282828       0.00000000       0.00000000      -0.12784328
2
Properties=species:S:1:pos:R:3:forces:R:3 energy=-7.463506021960261 pbc="F F F"
V        0.00000000       0.00000000       0.00000000       0.00000000       0.00000000       0.13890332
V        0.00000000       0.00000000       5.64242424       0.00000000       0.00000000      -0.13890332
2
Properties=species:S:1:pos:R:3:forces:R:3 energy=-7.454911053938819 pbc="F F F"
V        0.00000000       0.00000000       0.00000000       0.00000000       0.00000000       0.14754662
V        0.00000000       0.00000000       5.70202020       0.00000000       0.00000000      -0.14754662
2
Properties=species:S:1:pos:R:3:forces:R:3 energy=-7.446288767642995 pbc="F F F"
V        0.00000000       0.00000000       0.00000000       0.00000000       0.00000000       0.13828453
V        0.00000000       0.00000000       5.76161616       0.00000000       0.00000000      -0.13828453
2
Properties=species:S:1:pos:R:3:forces:R:3 energy=-7.438880543321449 pbc="F F F"
V        0.00000000       0.00000000       0.00000000       0.00000000       0.00000000       0.10704274
V        0.00000000       0.00000000       5.82121212       0.00000000       0.00000000      -0.10704274
2
Properties=species:S:1:pos:R:3:forces:R:3 energy=-7.433740703256562 pbc="F F F"
V        0.00000000       0.00000000       0.00000000       0.00000000       0.00000000       0.06572570
V        0.00000000       0.00000000       5.88080808       0.00000000       0.00000000      -0.06572570
2
Properties=species:S:1:pos:R:3:forces:R:3 energy=-7.4308757953513 pbc="F F F"
V        0.00000000       0.00000000       0.00000000       0.00000000       0.00000000       0.03232526
V        0.00000000       0.00000000       5.94040404       0.00000000       0.00000000      -0.03232526
2
Properties=species:S:1:pos:R:3:forces:R:3 energy=-7.429470718480337 pbc="F F F"
V        0.00000000       0.00000000       0.00000000       0.00000000       0.00000000       0.01901128
V        0.00000000       0.00000000       6.00000000       0.00000000       0.00000000      -0.01901128
