2
Properties=species:S:1:pos:R:3:forces:R:3 energy=14833.517023670202 pbc="F F F"
W        0.00000000       0.00000000       0.00000000       0.00000000       0.00000000 -259537.76562500
W        0.00000000       0.00000000       0.18000000       0.00000000       0.00000000  259537.76562500
2
Properties=species:S:1:pos:R:3:forces:R:3 energy=5767.9286447639515 pbc="F F F"
W        0.00000000       0.00000000       0.00000000       0.00000000       0.00000000  -85721.53125000
W        0.00000000       0.00000000       0.23878788       0.00000000       0.00000000   85721.53125000
2
Properties=species:S:1:pos:R:3:forces:R:3 energy=2541.4406076577443 pbc="F F F"
W        0.00000000       0.00000000       0.00000000       0.00000000       0.00000000  -33307.71484375
W        0.00000000       0.00000000       0.29757576       0.00000000       0.00000000   33307.71484375
2
Properties=species:S:1:pos:R:3:forces:R:3 energy=1228.1542307046195 pbc="F F F"
W        0.00000000       0.00000000       0.00000000       0.00000000       0.00000000  -14319.49804688
W        0.00000000       0.00000000       0.35636364       0.00000000       0.00000000   14319.49804688
2
Properties=species:S:1:pos:R:3:forces:R:3 energy=644.524042719506 pbc="F F F"
W        0.00000000       0.00000000       0.00000000       0.00000000       0.00000000   -6622.04443359
W        0.00000000       0.00000000       0.41515152       0.00000000       0.00000000    6622.04443359
2
Properties=species:S:1:pos:R:3:forces:R:3 energy=367.2639108867364 pbc="F F F"
W        0.00000000       0.00000000       0.00000000       0.00000000       0.00000000   -3250.28100586
W        0.00000000       0.00000000       0.47393939       0.00000000       0.00000000    3250.28100586
2
Properties=species:S:1:pos:R:3:forces:R:3 energy=227.9346109726499 pbc="F F F"
W        0.00000000       0.00000000       0.00000000       0.00000000       0.00000000   -1680.36462402
W        0.00000000       0.00000000       0.53272727       0.00000000       0.00000000    1680.36462402
2
Properties=species:S:1:pos:R:3:forces:R:3 energy=154.3801371147037 pbc="F F F"
W        0.00000000       0.00000000       0.00000000       0.00000000       0.00000000    -909.17181396
W        0.00000000       0.00000000       0.59151515       0.00000000       0.00000000     909.17181396
2
Properties=species:S:1:pos:R:3:forces:R:3 energy=113.88292950478035 pbc="F F F"
W        0.00000000       0.00000000       0.00000000       0.00000000       0.00000000    -510.26806641
W        0.00000000       0.00000000       0.65030303       0.00000000       0.00000000     510.26806641
2
Properties=species:S:1:pos:R:3:forces:R:3 energy=90.8882396077236 pbc="F F F"
W        0.00000000       0.00000000       0.00000000       0.00000000       0.00000000    -292.99462891
W        0.00000000       0.00000000       0.70909091       0.00000000       0.00000000     292.99462891
2
Properties=species:S:1:pos:R:3:forces:R:3 energy=77.6146038163257 pbc="F F F"
W        0.00000000       0.00000000       0.00000000       0.00000000       0.00000000    -170.01516724
W        0.00000000       0.00000000       0.76787879       0.00000000       0.00000000     170.01516724
2
Properties=species:S:1:pos:R:3:forces:R:3 energy=69.8558758966879 pbc="F F F"
W        0.00000000       0.00000000       0.00000000       0.00000000       0.00000000    -100.90077972
W        0.00000000       0.00000000       0.82666667       0.00000000       0.00000000     100.90077972
2
Properties=species:S:1:pos:R:3:forces:R:3 energy=65.08460529995807 pbc="F F F"
W        0.00000000       0.00000000       0.00000000       0.00000000       0.00000000     -66.01714325
W        0.00000000       0.00000000       0.88545455       0.00000000       0.00000000      66.01714325
2
Properties=species:S:1:pos:R:3:forces:R:3 energy=61.655150711903175 pbc="F F F"
W        0.00000000       0.00000000       0.00000000       0.00000000       0.00000000     -53.62122345
W        0.00000000       0.00000000       0.94424242       0.00000000       0.00000000      53.62122345
2
Properties=species:S:1:pos:R:3:forces:R:3 energy=58.503112435459705 pbc="F F F"
W        0.00000000       0.00000000       0.00000000       0.00000000       0.00000000     -55.44242096
W        0.00000000       0.00000000       1.00303030       0.00000000       0.00000000      55.44242096
2
Properties=species:S:1:pos:R:3:forces:R:3 energy=54.971366923960765 pbc="F F F"
W        0.00000000       0.00000000       0.00000000       0.00000000       0.00000000     -65.77523804
W        0.00000000       0.00000000       1.06181818       0.00000000       0.00000000      65.77523804
2
Properties=species:S:1:pos:R:3:forces:R:3 energy=50.67240581675059 pbc="F F F"
W        0.00000000       0.00000000       0.00000000       0.00000000       0.00000000     -81.07818604
W        0.00000000       0.00000000       1.12060606       0.00000000       0.00000000      81.07818604
2
Properties=species:S:1:pos:R:3:forces:R:3 energy=45.40154393432576 pbc="F F F"
W        0.00000000       0.00000000       0.00000000       0.00000000       0.00000000     -98.22306061
W        0.00000000       0.00000000       1.17939394       0.00000000       0.00000000      98.22306061
2
Properties=species:S:1:pos:R:3:forces:R:3 energy=39.16414859375288 pbc="F F F"
W        0.00000000       0.00000000       0.00000000       0.00000000       0.00000000    -113.34130859
W        0.00000000       0.00000000       1.23818182       0.00000000       0.00000000     113.34130859
2
Properties=species:S:1:pos:R:3:forces:R:3 energy=32.17681835645928 pbc="F F F"
W        0.00000000       0.00000000       0.00000000       0.00000000       0.00000000    -123.31372833
W        0.00000000       0.00000000       1.29696970       0.00000000       0.00000000     123.31372833
2
Properties=species:S:1:pos:R:3:forces:R:3 energy=24.80849553387231 pbc="F F F"
W        0.00000000       0.00000000       0.00000000       0.00000000       0.00000000    -126.03564453
W        0.00000000       0.00000000       1.35575758       0.00000000       0.00000000     126.03564453
2
Properties=species:S:1:pos:R:3:forces:R:3 energy=17.510962415910914 pbc="F F F"
W        0.00000000       0.00000000       0.00000000       0.00000000       0.00000000    -121.07817078
W        0.00000000       0.00000000       1.41454545       0.00000000       0.00000000     121.07817078
2
Properties=species:S:1:pos:R:3:forces:R:3 energy=10.676249794545205 pbc="F F F"
W        0.00000000       0.00000000       0.00000000       0.00000000       0.00000000    -110.81415558
W        0.00000000       0.00000000       1.47333333       0.00000000       0.00000000     110.81415558
2
Properties=species:S:1:pos:R:3:forces:R:3 energy=4.548281889900911 pbc="F F F"
W        0.00000000       0.00000000       0.00000000       0.00000000       0.00000000     -97.00492859
W        0.00000000       0.00000000       1.53212121       0.00000000       0.00000000      97.00492859
2
Properties=species:S:1:pos:R:3:forces:R:3 energy=-0.6347143029198696 pbc="F F F"
W        0.00000000       0.00000000       0.00000000       0.00000000       0.00000000     -78.52088928
W        0.00000000       0.00000000       1.59090909       0.00000000       0.00000000      78.52088928
2
Properties=species:S:1:pos:R:3:forces:R:3 energy=-4.633420311727739 pbc="F F F"
W        0.00000000       0.00000000       0.00000000       0.00000000       0.00000000     -57.65648270
W        0.00000000       0.00000000       1.64969697       0.00000000       0.00000000      57.65648270
2
Properties=species:S:1:pos:R:3:forces:R:3 energy=-7.493016330549556 pbc="F F F"
W        0.00000000       0.00000000       0.00000000       0.00000000       0.00000000     -40.61681366
W        0.00000000       0.00000000       1.70848485       0.00000000       0.00000000      40.61681366
2
Properties=species:S:1:pos:R:3:forces:R:3 energy=-9.51643785512795 pbc="F F F"
W        0.00000000       0.00000000       0.00000000       0.00000000       0.00000000     -28.90116882
W        0.00000000       0.00000000       1.76727273       0.00000000       0.00000000      28.90116882
2
Properties=species:S:1:pos:R:3:forces:R:3 energy=-10.943203868509267 pbc="F F F"
W        0.00000000       0.00000000       0.00000000       0.00000000       0.00000000     -19.94394684
W        0.00000000       0.00000000       1.82606061       0.00000000       0.00000000      19.94394684
2
Properties=species:S:1:pos:R:3:forces:R:3 energy=-11.89709975874561 pbc="F F F"
W        0.00000000       0.00000000       0.00000000       0.00000000       0.00000000     -12.84623337
W        0.00000000       0.00000000       1.88484848       0.00000000       0.00000000      12.84623337
2
Properties=species:S:1:pos:R:3:forces:R:3 energy=-12.494853354816469 pbc="F F F"
W        0.00000000       0.00000000       0.00000000       0.00000000       0.00000000      -7.81912947
W        0.00000000       0.00000000       1.94363636       0.00000000       0.00000000       7.81912947
2
Properties=species:S:1:pos:R:3:forces:R:3 energy=-12.84837080022443 pbc="F F F"
W        0.00000000       0.00000000       0.00000000       0.00000000       0.00000000      -4.41488886
W        0.00000000       0.00000000       2.00242424       0.00000000       0.00000000       4.41488886
2
Properties=species:S:1:pos:R:3:forces:R:3 energy=-13.032019066801949 pbc="F F F"
W        0.00000000       0.00000000       0.00000000       0.00000000       0.00000000      -1.94727933
W        0.00000000       0.00000000       2.06121212       0.00000000       0.00000000       1.94727933
2
Properties=species:S:1:pos:R:3:forces:R:3 energy=-13.088350041006953 pbc="F F F"
W        0.00000000       0.00000000       0.00000000       0.00000000       0.00000000      -0.05124250
W        0.00000000       0.00000000       2.12000000       0.00000000       0.00000000       0.05124250
2
Properties=species:S:1:pos:R:3:forces:R:3 energy=-13.047225838117557 pbc="F F F"
W        0.00000000       0.00000000       0.00000000       0.00000000       0.00000000       1.37428856
W        0.00000000       0.00000000       2.17878788       0.00000000       0.00000000      -1.37428856
2
Properties=species:S:1:pos:R:3:forces:R:3 energy=-12.935420940115046 pbc="F F F"
W        0.00000000       0.00000000       0.00000000       0.00000000       0.00000000       2.35956717
W        0.00000000       0.00000000       2.23757576       0.00000000       0.00000000      -2.35956717
2
Properties=species:S:1:pos:R:3:forces:R:3 energy=-12.777258872996555 pbc="F F F"
W        0.00000000       0.00000000       0.00000000       0.00000000       0.00000000       2.96585083
W        0.00000000       0.00000000       2.29636364       0.00000000       0.00000000      -2.96585083
2
Properties=species:S:1:pos:R:3:forces:R:3 energy=-12.5921337527867 pbc="F F F"
W        0.00000000       0.00000000       0.00000000       0.00000000       0.00000000       3.29541087
W        0.00000000       0.00000000       2.35515152       0.00000000       0.00000000      -3.29541087
2
Properties=species:S:1:pos:R:3:forces:R:3 energy=-12.393154524799332 pbc="F F F"
W        0.00000000       0.00000000       0.00000000       0.00000000       0.00000000       3.45244813
W        0.00000000       0.00000000       2.41393939       0.00000000       0.00000000      -3.45244813
2
Properties=species:S:1:pos:R:3:forces:R:3 energy=-12.188144528043043 pbc="F F F"
W        0.00000000       0.00000000       0.00000000       0.00000000       0.00000000       3.50930929
W        0.00000000       0.00000000       2.47272727       0.00000000       0.00000000      -3.50930929
2
Properties=species:S:1:pos:R:3:forces:R:3 energy=-11.981780313800607 pbc="F F F"
W        0.00000000       0.00000000       0.00000000       0.00000000       0.00000000       3.50230432
W        0.00000000       0.00000000       2.53151515       0.00000000       0.00000000      -3.50230432
2
Properties=species:S:1:pos:R:3:forces:R:3 energy=-11.777319427250378 pbc="F F F"
W        0.00000000       0.00000000       0.00000000       0.00000000       0.00000000       3.44617248
W        0.00000000       0.00000000       2.59030303       0.00000000       0.00000000      -3.44617248
2
Properties=species:S:1:pos:R:3:forces:R:3 energy=-11.577410858933439 pbc="F F F"
W        0.00000000       0.00000000       0.00000000       0.00000000       0.00000000       3.34835029
W        0.00000000       0.00000000       2.64909091       0.00000000       0.00000000      -3.34835029
2
Properties=species:S:1:pos:R:3:forces:R:3 energy=-11.38433986630052 pbc="F F F"
W        0.00000000       0.00000000       0.00000000       0.00000000       0.00000000       3.21439385
W        0.00000000       0.00000000       2.70787879       0.00000000       0.00000000      -3.21439385
2
Properties=species:S:1:pos:R:3:forces:R:3 energy=-11.200123852761502 pbc="F F F"
W        0.00000000       0.00000000       0.00000000       0.00000000       0.00000000       3.04723907
W        0.00000000       0.00000000       2.76666667       0.00000000       0.00000000      -3.04723907
2
Properties=species:S:1:pos:R:3:forces:R:3 energy=-11.026704959270521 pbc="F F F"
W        0.00000000       0.00000000       0.00000000       0.00000000       0.00000000       2.84713173
W        0.00000000       0.00000000       2.82545455       0.00000000       0.00000000      -2.84713173
2
Properties=species:S:1:pos:R:3:forces:R:3 energy=-10.865986416698824 pbc="F F F"
W        0.00000000       0.00000000       0.00000000       0.00000000       0.00000000       2.61583805
W        0.00000000       0.00000000       2.88424242       0.00000000       0.00000000      -2.61583805
2
Properties=species:S:1:pos:R:3:forces:R:3 energy=-10.719606771298679 pbc="F F F"
W        0.00000000       0.00000000       0.00000000       0.00000000       0.00000000       2.36113071
W        0.00000000       0.00000000       2.94303030       0.00000000       0.00000000      -2.36113071
2
Properties=species:S:1:pos:R:3:forces:R:3 energy=-10.588603341931272 pbc="F F F"
W        0.00000000       0.00000000       0.00000000       0.00000000       0.00000000       2.09474802
W        0.00000000       0.00000000       3.00181818       0.00000000       0.00000000      -2.09474802
2
Properties=species:S:1:pos:R:3:forces:R:3 energy=-10.473330136953741 pbc="F F F"
W        0.00000000       0.00000000       0.00000000       0.00000000       0.00000000       1.82762802
W        0.00000000       0.00000000       3.06060606       0.00000000       0.00000000      -1.82762802
2
Properties=species:S:1:pos:R:3:forces:R:3 energy=-10.373532865762375 pbc="F F F"
W        0.00000000       0.00000000       0.00000000       0.00000000       0.00000000       1.56997943
W        0.00000000       0.00000000       3.11939394       0.00000000       0.00000000      -1.56997943
2
Properties=species:S:1:pos:R:3:forces:R:3 energy=-10.288351263597239 pbc="F F F"
W        0.00000000       0.00000000       0.00000000       0.00000000       0.00000000       1.33203149
W        0.00000000       0.00000000       3.17818182       0.00000000       0.00000000      -1.33203149
2
Properties=species:S:1:pos:R:3:forces:R:3 energy=-10.216354512881049 pbc="F F F"
W        0.00000000       0.00000000       0.00000000       0.00000000       0.00000000       1.12278438
W        0.00000000       0.00000000       3.23696970       0.00000000       0.00000000      -1.12278438
2
Properties=species:S:1:pos:R:3:forces:R:3 energy=-10.155640872069341 pbc="F F F"
W        0.00000000       0.00000000       0.00000000       0.00000000       0.00000000       0.94910419
W        0.00000000       0.00000000       3.29575758       0.00000000       0.00000000      -0.94910419
2
Properties=species:S:1:pos:R:3:forces:R:3 energy=-10.10398353186069 pbc="F F F"
W        0.00000000       0.00000000       0.00000000       0.00000000       0.00000000       0.81504631
W        0.00000000       0.00000000       3.35454545       0.00000000       0.00000000      -0.81504631
2
Properties=species:S:1:pos:R:3:forces:R:3 energy=-10.059018002572722 pbc="F F F"
W        0.00000000       0.00000000       0.00000000       0.00000000       0.00000000       0.72130376
W        0.00000000       0.00000000       3.41333333       0.00000000       0.00000000      -0.72130376
2
Properties=species:S:1:pos:R:3:forces:R:3 energy=-10.018436290669724 pbc="F F F"
W        0.00000000       0.00000000       0.00000000       0.00000000       0.00000000       0.66521704
W        0.00000000       0.00000000       3.47212121       0.00000000       0.00000000      -0.66521704
2
Properties=species:S:1:pos:R:3:forces:R:3 energy=-9.980176904067736 pbc="F F F"
W        0.00000000       0.00000000       0.00000000       0.00000000       0.00000000       0.64112818
W        0.00000000       0.00000000       3.53090909       0.00000000       0.00000000      -0.64112818
2
Properties=species:S:1:pos:R:3:forces:R:3 energy=-9.94258872540616 pbc="F F F"
W        0.00000000       0.00000000       0.00000000       0.00000000       0.00000000       0.64076203
W        0.00000000       0.00000000       3.58969697       0.00000000       0.00000000      -0.64076203
2
Properties=species:S:1:pos:R:3:forces:R:3 energy=-9.904570698328703 pbc="F F F"
W        0.00000000       0.00000000       0.00000000       0.00000000       0.00000000       0.65405142
W        0.00000000       0.00000000       3.64848485       0.00000000       0.00000000      -0.65405142
2
Properties=species:S:1:pos:R:3:forces:R:3 energy=-9.865624431626241 pbc="F F F"
W        0.00000000       0.00000000       0.00000000       0.00000000       0.00000000       0.67066991
W        0.00000000       0.00000000       3.70727273       0.00000000       0.00000000      -0.67066991
2
Properties=species:S:1:pos:R:3:forces:R:3 energy=-9.825823811539403 pbc="F F F"
W        0.00000000       0.00000000       0.00000000       0.00000000       0.00000000       0.68183029
W        0.00000000       0.00000000       3.76606061       0.00000000       0.00000000      -0.68183029
2
Properties=species:S:1:pos:R:3:forces:R:3 energy=-9.785683432716777 pbc="F F F"
W        0.00000000       0.00000000       0.00000000       0.00000000       0.00000000       0.68156958
W        0.00000000       0.00000000       3.82484848       0.00000000       0.00000000      -0.68156958
2
Properties=species:S:1:pos:R:3:forces:R:3 energy=-9.745967825337754 pbc="F F F"
W        0.00000000       0.00000000       0.00000000       0.00000000       0.00000000       0.66717309
W        0.00000000       0.00000000       3.88363636       0.00000000       0.00000000      -0.66717309
2
Properties=species:S:1:pos:R:3:forces:R:3 energy=-9.707512300557404 pbc="F F F"
W        0.00000000       0.00000000       0.00000000       0.00000000       0.00000000       0.63896930
W        0.00000000       0.00000000       3.94242424       0.00000000       0.00000000      -0.63896930
2
Properties=species:S:1:pos:R:3:forces:R:3 energy=-9.671056954154617 pbc="F F F"
W        0.00000000       0.00000000       0.00000000       0.00000000       0.00000000       0.59980118
W        0.00000000       0.00000000       4.00121212       0.00000000       0.00000000      -0.59980118
2
Properties=species:S:1:pos:R:3:forces:R:3 energy=-9.637116108185424 pbc="F F F"
W        0.00000000       0.00000000       0.00000000       0.00000000       0.00000000       0.55424494
W        0.00000000       0.00000000       4.06000000       0.00000000       0.00000000      -0.55424494
2
Properties=species:S:1:pos:R:3:forces:R:3 energy=-9.605913461129479 pbc="F F F"
W        0.00000000       0.00000000       0.00000000       0.00000000       0.00000000       0.50754422
W        0.00000000       0.00000000       4.11878788       0.00000000       0.00000000      -0.50754422
2
Properties=species:S:1:pos:R:3:forces:R:3 energy=-9.577371622815157 pbc="F F F"
W        0.00000000       0.00000000       0.00000000       0.00000000       0.00000000       0.46434295
W        0.00000000       0.00000000       4.17757576       0.00000000       0.00000000      -0.46434295
2
Properties=species:S:1:pos:R:3:forces:R:3 energy=-9.551189422227802 pbc="F F F"
W        0.00000000       0.00000000       0.00000000       0.00000000       0.00000000       0.42756206
W        0.00000000       0.00000000       4.23636364       0.00000000       0.00000000      -0.42756206
2
Properties=species:S:1:pos:R:3:forces:R:3 energy=-9.526962045131018 pbc="F F F"
W        0.00000000       0.00000000       0.00000000       0.00000000       0.00000000       0.39773375
W        0.00000000       0.00000000       4.29515152       0.00000000       0.00000000      -0.39773375
2
Properties=species:S:1:pos:R:3:forces:R:3 energy=-9.504323251917056 pbc="F F F"
W        0.00000000       0.00000000       0.00000000       0.00000000       0.00000000       0.37311533
W        0.00000000       0.00000000       4.35393939       0.00000000       0.00000000      -0.37311533
2
Properties=species:S:1:pos:R:3:forces:R:3 energy=-9.483054939279425 pbc="F F F"
W        0.00000000       0.00000000       0.00000000       0.00000000       0.00000000       0.35046288
W        0.00000000       0.00000000       4.41272727       0.00000000       0.00000000      -0.35046288
2
Properties=species:S:1:pos:R:3:forces:R:3 energy=-9.46314727237998 pbc="F F F"
W        0.00000000       0.00000000       0.00000000       0.00000000       0.00000000       0.32628730
W        0.00000000       0.00000000       4.47151515       0.00000000       0.00000000      -0.32628730
2
Properties=species:S:1:pos:R:3:forces:R:3 energy=-9.444771094818009 pbc="F F F"
W        0.00000000       0.00000000       0.00000000       0.00000000       0.00000000       0.29806662
W        0.00000000       0.00000000       4.53030303       0.00000000       0.00000000      -0.29806662
2
Properties=species:S:1:pos:R:3:forces:R:3 energy=-9.428197731288638 pbc="F F F"
W        0.00000000       0.00000000       0.00000000       0.00000000       0.00000000       0.26503646
W        0.00000000       0.00000000       4.58909091       0.00000000       0.00000000      -0.26503646
2
Properties=species:S:1:pos:R:3:forces:R:3 energy=-9.413683596158368 pbc="F F F"
W        0.00000000       0.00000000       0.00000000       0.00000000       0.00000000       0.22829345
W        0.00000000       0.00000000       4.64787879       0.00000000       0.00000000      -0.22829345
2
Properties=species:S:1:pos:R:3:forces:R:3 energy=-9.401381495418002 pbc="F F F"
W        0.00000000       0.00000000       0.00000000       0.00000000       0.00000000       0.19024803
W        0.00000000       0.00000000       4.70666667       0.00000000       0.00000000      -0.19024803
2
Properties=species:S:1:pos:R:3:forces:R:3 energy=-9.391284283870247 pbc="F F F"
W        0.00000000       0.00000000       0.00000000       0.00000000       0.00000000       0.15374278
W        0.00000000       0.00000000       4.76545455       0.00000000       0.00000000      -0.15374278
2
Properties=species:S:1:pos:R:3:forces:R:3 energy=-9.383226766142705 pbc="F F F"
W        0.00000000       0.00000000       0.00000000       0.00000000       0.00000000       0.12118868
W        0.00000000       0.00000000       4.82424242       0.00000000       0.00000000      -0.12118868
2
Properties=species:S:1:pos:R:3:forces:R:3 energy=-9.376928567682599 pbc="F F F"
W        0.00000000       0.00000000       0.00000000       0.00000000       0.00000000       0.09405500
W        0.00000000       0.00000000       4.88303030       0.00000000       0.00000000      -0.09405500
2
Properties=species:S:1:pos:R:3:forces:R:3 energy=-9.372054102197103 pbc="F F F"
W        0.00000000       0.00000000       0.00000000       0.00000000       0.00000000       0.07273746
W        0.00000000       0.00000000       4.94181818       0.00000000       0.00000000      -0.07273746
2
Properties=species:S:1:pos:R:3:forces:R:3 energy=-9.368269760434117 pbc="F F F"
W        0.00000000       0.00000000       0.00000000       0.00000000       0.00000000       0.05683542
W        0.00000000       0.00000000       5.00060606       0.00000000       0.00000000      -0.05683542
2
Properties=species:S:1:pos:R:3:forces:R:3 energy=-9.36527729511898 pbc="F F F"
W        0.00000000       0.00000000       0.00000000       0.00000000       0.00000000       0.04573386
W        0.00000000       0.00000000       5.05939394       0.00000000       0.00000000      -0.04573386
2
Properties=species:S:1:pos:R:3:forces:R:3 energy=-9.36279935111297 pbc="F F F"
W        0.00000000       0.00000000       0.00000000       0.00000000       0.00000000       0.03943672
W        0.00000000       0.00000000       5.11818182       0.00000000       0.00000000      -0.03943672
2
Properties=species:S:1:pos:R:3:forces:R:3 energy=-9.360525090138157 pbc="F F F"
W        0.00000000       0.00000000       0.00000000       0.00000000       0.00000000       0.03907934
W        0.00000000       0.00000000       5.17696970       0.00000000       0.00000000      -0.03907934
2
Properties=species:S:1:pos:R:3:forces:R:3 energy=-9.358063429057689 pbc="F F F"
W        0.00000000       0.00000000       0.00000000       0.00000000       0.00000000       0.04580483
W        0.00000000       0.00000000       5.23575758       0.00000000       0.00000000      -0.04580483
2
Properties=species:S:1:pos:R:3:forces:R:3 energy=-9.355036420763225 pbc="F F F"
W        0.00000000       0.00000000       0.00000000       0.00000000       0.00000000       0.05762579
W        0.00000000       0.00000000       5.29454545       0.00000000       0.00000000      -0.05762579
2
Properties=species:S:1:pos:R:3:forces:R:3 energy=-9.35130908493348 pbc="F F F"
W        0.00000000       0.00000000       0.00000000       0.00000000       0.00000000       0.06844183
W        0.00000000       0.00000000       5.35333333       0.00000000       0.00000000      -0.06844183
2
Properties=species:S:1:pos:R:3:forces:R:3 energy=-9.347109482299052 pbc="F F F"
W        0.00000000       0.00000000       0.00000000       0.00000000       0.00000000       0.07330378
W        0.00000000       0.00000000       5.41212121       0.00000000       0.00000000      -0.07330378
2
Properties=species:S:1:pos:R:3:forces:R:3 energy=-9.34279891556214 pbc="F F F"
W        0.00000000       0.00000000       0.00000000       0.00000000       0.00000000       0.07265919
W        0.00000000       0.00000000       5.47090909       0.00000000       0.00000000      -0.07265919
2
Properties=species:S:1:pos:R:3:forces:R:3 energy=-9.338624867559956 pbc="F F F"
W        0.00000000       0.00000000       0.00000000       0.00000000       0.00000000       0.06892776
W        0.00000000       0.00000000       5.52969697       0.00000000       0.00000000      -0.06892776
2
Properties=species:S:1:pos:R:3:forces:R:3 energy=-9.334766774464105 pbc="F F F"
W        0.00000000       0.00000000       0.00000000       0.00000000       0.00000000       0.06141268
W        0.00000000       0.00000000       5.58848485       0.00000000       0.00000000      -0.06141268
2
Properties=species:S:1:pos:R:3:forces:R:3 energy=-9.33156209727872 pbc="F F F"
W        0.00000000       0.00000000       0.00000000       0.00000000       0.00000000       0.04595810
W        0.00000000       0.00000000       5.64727273       0.00000000       0.00000000      -0.04595810
2
Properties=species:S:1:pos:R:3:forces:R:3 energy=-9.329527223479872 pbc="F F F"
W        0.00000000       0.00000000       0.00000000       0.00000000       0.00000000       0.02257846
W        0.00000000       0.00000000       5.70606061       0.00000000       0.00000000      -0.02257846
2
Properties=species:S:1:pos:R:3:forces:R:3 energy=-9.328855891345938 pbc="F F F"
W        0.00000000       0.00000000       0.00000000       0.00000000       0.00000000       0.00195480
W        0.00000000       0.00000000       5.76484848       0.00000000       0.00000000      -0.00195480
2
Properties=species:S:1:pos:R:3:forces:R:3 energy=-9.329011077538802 pbc="F F F"
W        0.00000000       0.00000000       0.00000000       0.00000000       0.00000000      -0.00465801
W        0.00000000       0.00000000       5.82363636       0.00000000       0.00000000       0.00465801
2
Properties=species:S:1:pos:R:3:forces:R:3 energy=-9.329150261405145 pbc="F F F"
W        0.00000000       0.00000000       0.00000000       0.00000000       0.00000000       0.00118573
W        0.00000000       0.00000000       5.88242424       0.00000000       0.00000000      -0.00118573
2
Properties=species:S:1:pos:R:3:forces:R:3 energy=-9.328825499536343 pbc="F F F"
W        0.00000000       0.00000000       0.00000000       0.00000000       0.00000000       0.00955950
W        0.00000000       0.00000000       5.94121212       0.00000000       0.00000000      -0.00955950
2
Properties=species:S:1:pos:R:3:forces:R:3 energy=-9.328133190649993 pbc="F F F"
W        0.00000000       0.00000000       0.00000000       0.00000000       0.00000000       0.01275367
W        0.00000000       0.00000000       6.00000000       0.00000000       0.00000000      -0.01275367
