2
Properties=species:S:1:pos:R:3:forces:R:3 energy=6121.062597636698 pbc="F F F"
Y        0.00000000       0.00000000       0.00000000       0.00000000       0.00000000  -98871.42968750
Y        0.00000000       0.00000000       0.18000000       0.00000000       0.00000000   98871.42968750
2
Properties=species:S:1:pos:R:3:forces:R:3 energy=2574.7881835741987 pbc="F F F"
Y        0.00000000       0.00000000       0.00000000       0.00000000       0.00000000  -34810.41406250
Y        0.00000000       0.00000000       0.23878788       0.00000000       0.00000000   34810.41406250
2
Properties=species:S:1:pos:R:3:forces:R:3 energy=1227.8672851366985 pbc="F F F"
Y        0.00000000       0.00000000       0.00000000       0.00000000       0.00000000  -14444.42285156
Y        0.00000000       0.00000000       0.29757576       0.00000000       0.00000000   14444.42285156
2
Properties=species:S:1:pos:R:3:forces:R:3 energy=641.4191039970261 pbc="F F F"
Y        0.00000000       0.00000000       0.00000000       0.00000000       0.00000000   -6643.72949219
Y        0.00000000       0.00000000       0.35636364       0.00000000       0.00000000    6643.72949219
2
Properties=species:S:1:pos:R:3:forces:R:3 energy=362.736700432573 pbc="F F F"
Y        0.00000000       0.00000000       0.00000000       0.00000000       0.00000000   -3277.13696289
Y        0.00000000       0.00000000       0.41515152       0.00000000       0.00000000    3277.13696289
2
Properties=species:S:1:pos:R:3:forces:R:3 energy=221.8848480155808 pbc="F F F"
Y        0.00000000       0.00000000       0.00000000       0.00000000       0.00000000   -1703.72570801
Y        0.00000000       0.00000000       0.47393939       0.00000000       0.00000000    1703.72570801
2
Properties=species:S:1:pos:R:3:forces:R:3 energy=147.18453065177522 pbc="F F F"
Y        0.00000000       0.00000000       0.00000000       0.00000000       0.00000000    -924.89538574
Y        0.00000000       0.00000000       0.53272727       0.00000000       0.00000000     924.89538574
2
Properties=species:S:1:pos:R:3:forces:R:3 energy=105.91977542809437 pbc="F F F"
Y        0.00000000       0.00000000       0.00000000       0.00000000       0.00000000    -521.44989014
Y        0.00000000       0.00000000       0.59151515       0.00000000       0.00000000     521.44989014
2
Properties=species:S:1:pos:R:3:forces:R:3 energy=82.28784035281497 pbc="F F F"
Y        0.00000000       0.00000000       0.00000000       0.00000000       0.00000000    -304.08230591
Y        0.00000000       0.00000000       0.65030303       0.00000000       0.00000000     304.08230591
2
Properties=species:S:1:pos:R:3:forces:R:3 energy=68.31817488882766 pbc="F F F"
Y        0.00000000       0.00000000       0.00000000       0.00000000       0.00000000    -182.46466064
Y        0.00000000       0.00000000       0.70909091       0.00000000       0.00000000     182.46466064
2
Properties=species:S:1:pos:R:3:forces:R:3 energy=59.855612422827164 pbc="F F F"
Y        0.00000000       0.00000000       0.00000000       0.00000000       0.00000000    -111.48615265
Y        0.00000000       0.00000000       0.76787879       0.00000000       0.00000000     111.48615265
2
Properties=species:S:1:pos:R:3:forces:R:3 energy=54.67745094745324 pbc="F F F"
Y        0.00000000       0.00000000       0.00000000       0.00000000       0.00000000     -68.07141113
Y        0.00000000       0.00000000       0.82666667       0.00000000       0.00000000      68.07141113
2
Properties=species:S:1:pos:R:3:forces:R:3 energy=51.53388883329932 pbc="F F F"
Y        0.00000000       0.00000000       0.00000000       0.00000000       0.00000000     -41.11000061
Y        0.00000000       0.00000000       0.88545455       0.00000000       0.00000000      41.11000061
2
Properties=species:S:1:pos:R:3:forces:R:3 energy=49.6099236706374 pbc="F F F"
Y        0.00000000       0.00000000       0.00000000       0.00000000       0.00000000     -26.15928650
Y        0.00000000       0.00000000       0.94424242       0.00000000       0.00000000      26.15928650
2
Properties=species:S:1:pos:R:3:forces:R:3 energy=48.26242803706815 pbc="F F F"
Y        0.00000000       0.00000000       0.00000000       0.00000000       0.00000000     -21.18905067
Y        0.00000000       0.00000000       1.00303030       0.00000000       0.00000000      21.18905067
2
Properties=species:S:1:pos:R:3:forces:R:3 energy=46.9638674794065 pbc="F F F"
Y        0.00000000       0.00000000       0.00000000       0.00000000       0.00000000     -24.10940361
Y        0.00000000       0.00000000       1.06181818       0.00000000       0.00000000      24.10940361
2
Properties=species:S:1:pos:R:3:forces:R:3 energy=45.31849770560023 pbc="F F F"
Y        0.00000000       0.00000000       0.00000000       0.00000000       0.00000000     -32.61122131
Y        0.00000000       0.00000000       1.12060606       0.00000000       0.00000000      32.61122131
2
Properties=species:S:1:pos:R:3:forces:R:3 energy=43.06247140892461 pbc="F F F"
Y        0.00000000       0.00000000       0.00000000       0.00000000       0.00000000     -44.54596329
Y        0.00000000       0.00000000       1.17939394       0.00000000       0.00000000      44.54596329
2
Properties=species:S:1:pos:R:3:forces:R:3 energy=40.0510895560564 pbc="F F F"
Y        0.00000000       0.00000000       0.00000000       0.00000000       0.00000000     -58.01233292
Y        0.00000000       0.00000000       1.23818182       0.00000000       0.00000000      58.01233292
2
Properties=species:S:1:pos:R:3:forces:R:3 energy=36.246197608301266 pbc="F F F"
Y        0.00000000       0.00000000       0.00000000       0.00000000       0.00000000     -71.23531342
Y        0.00000000       0.00000000       1.29696970       0.00000000       0.00000000      71.23531342
2
Properties=species:S:1:pos:R:3:forces:R:3 energy=31.719704573485664 pbc="F F F"
Y        0.00000000       0.00000000       0.00000000       0.00000000       0.00000000     -82.20131683
Y        0.00000000       0.00000000       1.35575758       0.00000000       0.00000000      82.20131683
2
Properties=species:S:1:pos:R:3:forces:R:3 energy=26.665931231690845 pbc="F F F"
Y        0.00000000       0.00000000       0.00000000       0.00000000       0.00000000     -88.87512970
Y        0.00000000       0.00000000       1.41454545       0.00000000       0.00000000      88.87512970
2
Properties=species:S:1:pos:R:3:forces:R:3 energy=21.382157029525988 pbc="F F F"
Y        0.00000000       0.00000000       0.00000000       0.00000000       0.00000000     -89.85037994
Y        0.00000000       0.00000000       1.47333333       0.00000000       0.00000000      89.85037994
2
Properties=species:S:1:pos:R:3:forces:R:3 energy=16.228643985475653 pbc="F F F"
Y        0.00000000       0.00000000       0.00000000       0.00000000       0.00000000     -84.39589691
Y        0.00000000       0.00000000       1.53212121       0.00000000       0.00000000      84.39589691
2
Properties=species:S:1:pos:R:3:forces:R:3 energy=11.571152107479293 pbc="F F F"
Y        0.00000000       0.00000000       0.00000000       0.00000000       0.00000000     -73.32776642
Y        0.00000000       0.00000000       1.59090909       0.00000000       0.00000000      73.32776642
2
Properties=species:S:1:pos:R:3:forces:R:3 energy=7.65688153445682 pbc="F F F"
Y        0.00000000       0.00000000       0.00000000       0.00000000       0.00000000     -59.70252609
Y        0.00000000       0.00000000       1.64969697       0.00000000       0.00000000      59.70252609
2
Properties=species:S:1:pos:R:3:forces:R:3 energy=4.542192675885966 pbc="F F F"
Y        0.00000000       0.00000000       0.00000000       0.00000000       0.00000000     -46.51030350
Y        0.00000000       0.00000000       1.70848485       0.00000000       0.00000000      46.51030350
2
Properties=species:S:1:pos:R:3:forces:R:3 energy=2.1448675770126204 pbc="F F F"
Y        0.00000000       0.00000000       0.00000000       0.00000000       0.00000000     -35.50628281
Y        0.00000000       0.00000000       1.76727273       0.00000000       0.00000000      35.50628281
2
Properties=species:S:1:pos:R:3:forces:R:3 energy=0.3109156696903895 pbc="F F F"
Y        0.00000000       0.00000000       0.00000000       0.00000000       0.00000000     -27.34738350
Y        0.00000000       0.00000000       1.82606061       0.00000000       0.00000000      27.34738350
2
Properties=species:S:1:pos:R:3:forces:R:3 energy=-1.1175786042602043 pbc="F F F"
Y        0.00000000       0.00000000       0.00000000       0.00000000       0.00000000     -21.57972717
Y        0.00000000       0.00000000       1.88484848       0.00000000       0.00000000      21.57972717
2
Properties=species:S:1:pos:R:3:forces:R:3 energy=-2.257036948362827 pbc="F F F"
Y        0.00000000       0.00000000       0.00000000       0.00000000       0.00000000     -17.38777542
Y        0.00000000       0.00000000       1.94363636       0.00000000       0.00000000      17.38777542
2
Properties=species:S:1:pos:R:3:forces:R:3 energy=-3.180528850366929 pbc="F F F"
Y        0.00000000       0.00000000       0.00000000       0.00000000       0.00000000     -14.15154934
Y        0.00000000       0.00000000       2.00242424       0.00000000       0.00000000      14.15154934
2
Properties=species:S:1:pos:R:3:forces:R:3 energy=-3.9319301265884907 pbc="F F F"
Y        0.00000000       0.00000000       0.00000000       0.00000000       0.00000000     -11.48149109
Y        0.00000000       0.00000000       2.06121212       0.00000000       0.00000000      11.48149109
2
Properties=species:S:1:pos:R:3:forces:R:3 energy=-4.536502685337114 pbc="F F F"
Y        0.00000000       0.00000000       0.00000000       0.00000000       0.00000000      -9.12271690
Y        0.00000000       0.00000000       2.12000000       0.00000000       0.00000000       9.12271690
2
Properties=species:S:1:pos:R:3:forces:R:3 energy=-5.00779136418784 pbc="F F F"
Y        0.00000000       0.00000000       0.00000000       0.00000000       0.00000000      -6.93482494
Y        0.00000000       0.00000000       2.17878788       0.00000000       0.00000000       6.93482494
2
Properties=species:S:1:pos:R:3:forces:R:3 energy=-5.35526667428899 pbc="F F F"
Y        0.00000000       0.00000000       0.00000000       0.00000000       0.00000000      -4.92560148
Y        0.00000000       0.00000000       2.23757576       0.00000000       0.00000000       4.92560148
2
Properties=species:S:1:pos:R:3:forces:R:3 energy=-5.5933541357688465 pbc="F F F"
Y        0.00000000       0.00000000       0.00000000       0.00000000       0.00000000      -3.24531031
Y        0.00000000       0.00000000       2.29636364       0.00000000       0.00000000       3.24531031
2
Properties=species:S:1:pos:R:3:forces:R:3 energy=-5.746718532437958 pbc="F F F"
Y        0.00000000       0.00000000       0.00000000       0.00000000       0.00000000      -2.06490588
Y        0.00000000       0.00000000       2.35515152       0.00000000       0.00000000       2.06490588
2
Properties=species:S:1:pos:R:3:forces:R:3 energy=-5.847094806022382 pbc="F F F"
Y        0.00000000       0.00000000       0.00000000       0.00000000       0.00000000      -1.43835926
Y        0.00000000       0.00000000       2.41393939       0.00000000       0.00000000       1.43835926
2
Properties=species:S:1:pos:R:3:forces:R:3 energy=-5.924828591174144 pbc="F F F"
Y        0.00000000       0.00000000       0.00000000       0.00000000       0.00000000      -1.26722336
Y        0.00000000       0.00000000       2.47272727       0.00000000       0.00000000       1.26722336
2
Properties=species:S:1:pos:R:3:forces:R:3 energy=-6.001098590948203 pbc="F F F"
Y        0.00000000       0.00000000       0.00000000       0.00000000       0.00000000      -1.35145700
Y        0.00000000       0.00000000       2.53151515       0.00000000       0.00000000       1.35145700
2
Properties=species:S:1:pos:R:3:forces:R:3 energy=-6.084580071178772 pbc="F F F"
Y        0.00000000       0.00000000       0.00000000       0.00000000       0.00000000      -1.48168397
Y        0.00000000       0.00000000       2.59030303       0.00000000       0.00000000       1.48168397
2
Properties=species:S:1:pos:R:3:forces:R:3 energy=-6.173362683530653 pbc="F F F"
Y        0.00000000       0.00000000       0.00000000       0.00000000       0.00000000      -1.51570618
Y        0.00000000       0.00000000       2.64909091       0.00000000       0.00000000       1.51570618
2
Properties=species:S:1:pos:R:3:forces:R:3 energy=-6.25981258060443 pbc="F F F"
Y        0.00000000       0.00000000       0.00000000       0.00000000       0.00000000      -1.40004778
Y        0.00000000       0.00000000       2.70787879       0.00000000       0.00000000       1.40004778
2
Properties=species:S:1:pos:R:3:forces:R:3 energy=-6.335273466124309 pbc="F F F"
Y        0.00000000       0.00000000       0.00000000       0.00000000       0.00000000      -1.14763284
Y        0.00000000       0.00000000       2.76666667       0.00000000       0.00000000       1.14763284
2
Properties=species:S:1:pos:R:3:forces:R:3 energy=-6.392959592663655 pbc="F F F"
Y        0.00000000       0.00000000       0.00000000       0.00000000       0.00000000      -0.80422372
Y        0.00000000       0.00000000       2.82545455       0.00000000       0.00000000       0.80422372
2
Properties=species:S:1:pos:R:3:forces:R:3 energy=-6.4290974852162295 pbc="F F F"
Y        0.00000000       0.00000000       0.00000000       0.00000000       0.00000000      -0.42314532
Y        0.00000000       0.00000000       2.88424242       0.00000000       0.00000000       0.42314532
2
Properties=species:S:1:pos:R:3:forces:R:3 energy=-6.4429074185912185 pbc="F F F"
Y        0.00000000       0.00000000       0.00000000       0.00000000       0.00000000      -0.05172673
Y        0.00000000       0.00000000       2.94303030       0.00000000       0.00000000       0.05172673
2
Properties=species:S:1:pos:R:3:forces:R:3 energy=-6.436087749737528 pbc="F F F"
Y        0.00000000       0.00000000       0.00000000       0.00000000       0.00000000       0.27369964
Y        0.00000000       0.00000000       3.00181818       0.00000000       0.00000000      -0.27369964
2
Properties=species:S:1:pos:R:3:forces:R:3 energy=-6.412123590260169 pbc="F F F"
Y        0.00000000       0.00000000       0.00000000       0.00000000       0.00000000       0.52826607
Y        0.00000000       0.00000000       3.06060606       0.00000000       0.00000000      -0.52826607
2
Properties=species:S:1:pos:R:3:forces:R:3 energy=-6.3756408318401085 pbc="F F F"
Y        0.00000000       0.00000000       0.00000000       0.00000000       0.00000000       0.69826245
Y        0.00000000       0.00000000       3.11939394       0.00000000       0.00000000      -0.69826245
2
Properties=species:S:1:pos:R:3:forces:R:3 energy=-6.331729169559051 pbc="F F F"
Y        0.00000000       0.00000000       0.00000000       0.00000000       0.00000000       0.78168708
Y        0.00000000       0.00000000       3.17818182       0.00000000       0.00000000      -0.78168708
2
Properties=species:S:1:pos:R:3:forces:R:3 energy=-6.2852417115018495 pbc="F F F"
Y        0.00000000       0.00000000       0.00000000       0.00000000       0.00000000       0.78848636
Y        0.00000000       0.00000000       3.23696970       0.00000000       0.00000000      -0.78848636
2
Properties=species:S:1:pos:R:3:forces:R:3 energy=-6.240128123236887 pbc="F F F"
Y        0.00000000       0.00000000       0.00000000       0.00000000       0.00000000       0.73904216
Y        0.00000000       0.00000000       3.29575758       0.00000000       0.00000000      -0.73904216
2
Properties=species:S:1:pos:R:3:forces:R:3 energy=-6.198916534540722 pbc="F F F"
Y        0.00000000       0.00000000       0.00000000       0.00000000       0.00000000       0.66068536
Y        0.00000000       0.00000000       3.35454545       0.00000000       0.00000000      -0.66068536
2
Properties=species:S:1:pos:R:3:forces:R:3 energy=-6.162427486234195 pbc="F F F"
Y        0.00000000       0.00000000       0.00000000       0.00000000       0.00000000       0.58329701
Y        0.00000000       0.00000000       3.41333333       0.00000000       0.00000000      -0.58329701
2
Properties=species:S:1:pos:R:3:forces:R:3 energy=-6.129772000471247 pbc="F F F"
Y        0.00000000       0.00000000       0.00000000       0.00000000       0.00000000       0.53430486
Y        0.00000000       0.00000000       3.47212121       0.00000000       0.00000000      -0.53430486
2
Properties=species:S:1:pos:R:3:forces:R:3 energy=-6.098686799550397 pbc="F F F"
Y        0.00000000       0.00000000       0.00000000       0.00000000       0.00000000       0.53166002
Y        0.00000000       0.00000000       3.53090909       0.00000000       0.00000000      -0.53166002
2
Properties=species:S:1:pos:R:3:forces:R:3 energy=-6.066324648343179 pbc="F F F"
Y        0.00000000       0.00000000       0.00000000       0.00000000       0.00000000       0.57626915
Y        0.00000000       0.00000000       3.58969697       0.00000000       0.00000000      -0.57626915
2
Properties=species:S:1:pos:R:3:forces:R:3 energy=-6.030299440569778 pbc="F F F"
Y        0.00000000       0.00000000       0.00000000       0.00000000       0.00000000       0.65297848
Y        0.00000000       0.00000000       3.64848485       0.00000000       0.00000000      -0.65297848
2
Properties=species:S:1:pos:R:3:forces:R:3 energy=-5.989305760635749 pbc="F F F"
Y        0.00000000       0.00000000       0.00000000       0.00000000       0.00000000       0.74237597
Y        0.00000000       0.00000000       3.70727273       0.00000000       0.00000000      -0.74237597
2
Properties=species:S:1:pos:R:3:forces:R:3 energy=-5.943045693282059 pbc="F F F"
Y        0.00000000       0.00000000       0.00000000       0.00000000       0.00000000       0.83033913
Y        0.00000000       0.00000000       3.76606061       0.00000000       0.00000000      -0.83033913
2
Properties=species:S:1:pos:R:3:forces:R:3 energy=-5.891868530018132 pbc="F F F"
Y        0.00000000       0.00000000       0.00000000       0.00000000       0.00000000       0.90866774
Y        0.00000000       0.00000000       3.82484848       0.00000000       0.00000000      -0.90866774
2
Properties=species:S:1:pos:R:3:forces:R:3 energy=-5.836487401944456 pbc="F F F"
Y        0.00000000       0.00000000       0.00000000       0.00000000       0.00000000       0.97283959
Y        0.00000000       0.00000000       3.88363636       0.00000000       0.00000000      -0.97283959
2
Properties=species:S:1:pos:R:3:forces:R:3 energy=-5.777802484650889 pbc="F F F"
Y        0.00000000       0.00000000       0.00000000       0.00000000       0.00000000       1.02098811
Y        0.00000000       0.00000000       3.94242424       0.00000000       0.00000000      -1.02098811
2
Properties=species:S:1:pos:R:3:forces:R:3 energy=-5.716750974350755 pbc="F F F"
Y        0.00000000       0.00000000       0.00000000       0.00000000       0.00000000       1.05359304
Y        0.00000000       0.00000000       4.00121212       0.00000000       0.00000000      -1.05359304
2
Properties=species:S:1:pos:R:3:forces:R:3 energy=-5.654188735893808 pbc="F F F"
Y        0.00000000       0.00000000       0.00000000       0.00000000       0.00000000       1.07279253
Y        0.00000000       0.00000000       4.06000000       0.00000000       0.00000000      -1.07279253
2
Properties=species:S:1:pos:R:3:forces:R:3 energy=-5.590824335347049 pbc="F F F"
Y        0.00000000       0.00000000       0.00000000       0.00000000       0.00000000       1.08132899
Y        0.00000000       0.00000000       4.11878788       0.00000000       0.00000000      -1.08132899
2
Properties=species:S:1:pos:R:3:forces:R:3 energy=-5.527213796195467 pbc="F F F"
Y        0.00000000       0.00000000       0.00000000       0.00000000       0.00000000       1.08144951
Y        0.00000000       0.00000000       4.17757576       0.00000000       0.00000000      -1.08144951
2
Properties=species:S:1:pos:R:3:forces:R:3 energy=-5.463815721743653 pbc="F F F"
Y        0.00000000       0.00000000       0.00000000       0.00000000       0.00000000       1.07418275
Y        0.00000000       0.00000000       4.23636364       0.00000000       0.00000000      -1.07418275
2
Properties=species:S:1:pos:R:3:forces:R:3 energy=-5.4010653836175075 pbc="F F F"
Y        0.00000000       0.00000000       0.00000000       0.00000000       0.00000000       1.05919516
Y        0.00000000       0.00000000       4.29515152       0.00000000       0.00000000      -1.05919516
2
Properties=species:S:1:pos:R:3:forces:R:3 energy=-5.339456550694091 pbc="F F F"
Y        0.00000000       0.00000000       0.00000000       0.00000000       0.00000000       1.03520954
Y        0.00000000       0.00000000       4.35393939       0.00000000       0.00000000      -1.03520954
2
Properties=species:S:1:pos:R:3:forces:R:3 energy=-5.279557275412998 pbc="F F F"
Y        0.00000000       0.00000000       0.00000000       0.00000000       0.00000000       1.00076258
Y        0.00000000       0.00000000       4.41272727       0.00000000       0.00000000      -1.00076258
2
Properties=species:S:1:pos:R:3:forces:R:3 energy=-5.222011984858674 pbc="F F F"
Y        0.00000000       0.00000000       0.00000000       0.00000000       0.00000000       0.95507610
Y        0.00000000       0.00000000       4.47151515       0.00000000       0.00000000      -0.95507610
2
Properties=species:S:1:pos:R:3:forces:R:3 energy=-5.167471550424914 pbc="F F F"
Y        0.00000000       0.00000000       0.00000000       0.00000000       0.00000000       0.89877659
Y        0.00000000       0.00000000       4.53030303       0.00000000       0.00000000      -0.89877659
2
Properties=species:S:1:pos:R:3:forces:R:3 energy=-5.1165001841917706 pbc="F F F"
Y        0.00000000       0.00000000       0.00000000       0.00000000       0.00000000       0.83425915
Y        0.00000000       0.00000000       4.58909091       0.00000000       0.00000000      -0.83425915
2
Properties=species:S:1:pos:R:3:forces:R:3 energy=-5.069466395271788 pbc="F F F"
Y        0.00000000       0.00000000       0.00000000       0.00000000       0.00000000       0.76560342
Y        0.00000000       0.00000000       4.64787879       0.00000000       0.00000000      -0.76560342
2
Properties=species:S:1:pos:R:3:forces:R:3 energy=-5.026462455015417 pbc="F F F"
Y        0.00000000       0.00000000       0.00000000       0.00000000       0.00000000       0.69801074
Y        0.00000000       0.00000000       4.70666667       0.00000000       0.00000000      -0.69801074
2
Properties=species:S:1:pos:R:3:forces:R:3 energy=-4.987269378822211 pbc="F F F"
Y        0.00000000       0.00000000       0.00000000       0.00000000       0.00000000       0.63686001
Y        0.00000000       0.00000000       4.76545455       0.00000000       0.00000000      -0.63686001
2
Properties=species:S:1:pos:R:3:forces:R:3 energy=-4.951371453003118 pbc="F F F"
Y        0.00000000       0.00000000       0.00000000       0.00000000       0.00000000       0.58641565
Y        0.00000000       0.00000000       4.82424242       0.00000000       0.00000000      -0.58641565
2
Properties=species:S:1:pos:R:3:forces:R:3 energy=-4.91807433834025 pbc="F F F"
Y        0.00000000       0.00000000       0.00000000       0.00000000       0.00000000       0.54854161
Y        0.00000000       0.00000000       4.88303030       0.00000000       0.00000000      -0.54854161
2
Properties=species:S:1:pos:R:3:forces:R:3 energy=-4.886656596597245 pbc="F F F"
Y        0.00000000       0.00000000       0.00000000       0.00000000       0.00000000       0.52182794
Y        0.00000000       0.00000000       4.94181818       0.00000000       0.00000000      -0.52182794
2
Properties=species:S:1:pos:R:3:forces:R:3 energy=-4.856581399881859 pbc="F F F"
Y        0.00000000       0.00000000       0.00000000       0.00000000       0.00000000       0.50202119
Y        0.00000000       0.00000000       5.00060606       0.00000000       0.00000000      -0.50202119
2
Properties=species:S:1:pos:R:3:forces:R:3 energy=-4.8275842433405005 pbc="F F F"
Y        0.00000000       0.00000000       0.00000000       0.00000000       0.00000000       0.48470071
Y        0.00000000       0.00000000       5.05939394       0.00000000       0.00000000      -0.48470071
2
Properties=species:S:1:pos:R:3:forces:R:3 energy=-4.799540194358922 pbc="F F F"
Y        0.00000000       0.00000000       0.00000000       0.00000000       0.00000000       0.47036350
Y        0.00000000       0.00000000       5.11818182       0.00000000       0.00000000      -0.47036350
2
Properties=species:S:1:pos:R:3:forces:R:3 energy=-4.772051339721352 pbc="F F F"
Y        0.00000000       0.00000000       0.00000000       0.00000000       0.00000000       0.46794868
Y        0.00000000       0.00000000       5.17696970       0.00000000       0.00000000      -0.46794868
2
Properties=species:S:1:pos:R:3:forces:R:3 energy=-4.744074350447362 pbc="F F F"
Y        0.00000000       0.00000000       0.00000000       0.00000000       0.00000000       0.48784378
Y        0.00000000       0.00000000       5.23575758       0.00000000       0.00000000      -0.48784378
2
Properties=species:S:1:pos:R:3:forces:R:3 energy=-4.714373630811461 pbc="F F F"
Y        0.00000000       0.00000000       0.00000000       0.00000000       0.00000000       0.52317876
Y        0.00000000       0.00000000       5.29454545       0.00000000       0.00000000      -0.52317876
2
Properties=species:S:1:pos:R:3:forces:R:3 energy=-4.682847103040936 pbc="F F F"
Y        0.00000000       0.00000000       0.00000000       0.00000000       0.00000000       0.54402930
Y        0.00000000       0.00000000       5.35333333       0.00000000       0.00000000      -0.54402930
2
Properties=species:S:1:pos:R:3:forces:R:3 energy=-4.651189234377145 pbc="F F F"
Y        0.00000000       0.00000000       0.00000000       0.00000000       0.00000000       0.52636874
Y        0.00000000       0.00000000       5.41212121       0.00000000       0.00000000      -0.52636874
2
Properties=species:S:1:pos:R:3:forces:R:3 energy=-4.6214460747663395 pbc="F F F"
Y        0.00000000       0.00000000       0.00000000       0.00000000       0.00000000       0.48507974
Y        0.00000000       0.00000000       5.47090909       0.00000000       0.00000000      -0.48507974
2
Properties=species:S:1:pos:R:3:forces:R:3 energy=-4.593667743180323 pbc="F F F"
Y        0.00000000       0.00000000       0.00000000       0.00000000       0.00000000       0.46845573
Y        0.00000000       0.00000000       5.52969697       0.00000000       0.00000000      -0.46845573
2
Properties=species:S:1:pos:R:3:forces:R:3 energy=-4.565041436292526 pbc="F F F"
Y        0.00000000       0.00000000       0.00000000       0.00000000       0.00000000       0.51746702
Y        0.00000000       0.00000000       5.58848485       0.00000000       0.00000000      -0.51746702
2
Properties=species:S:1:pos:R:3:forces:R:3 energy=-4.531796443610184 pbc="F F F"
Y        0.00000000       0.00000000       0.00000000       0.00000000       0.00000000       0.61655504
Y        0.00000000       0.00000000       5.64727273       0.00000000       0.00000000      -0.61655504
2
Properties=species:S:1:pos:R:3:forces:R:3 energy=-4.493162615142903 pbc="F F F"
Y        0.00000000       0.00000000       0.00000000       0.00000000       0.00000000       0.68494964
Y        0.00000000       0.00000000       5.70606061       0.00000000       0.00000000      -0.68494964
2
Properties=species:S:1:pos:R:3:forces:R:3 energy=-4.453431305453384 pbc="F F F"
Y        0.00000000       0.00000000       0.00000000       0.00000000       0.00000000       0.64198023
Y        0.00000000       0.00000000       5.76484848       0.00000000       0.00000000      -0.64198023
2
Properties=species:S:1:pos:R:3:forces:R:3 energy=-4.420072448257814 pbc="F F F"
Y        0.00000000       0.00000000       0.00000000       0.00000000       0.00000000       0.47885329
Y        0.00000000       0.00000000       5.82363636       0.00000000       0.00000000      -0.47885329
2
Properties=species:S:1:pos:R:3:forces:R:3 energy=-4.398205827645312 pbc="F F F"
Y        0.00000000       0.00000000       0.00000000       0.00000000       0.00000000       0.26650226
Y        0.00000000       0.00000000       5.88242424       0.00000000       0.00000000      -0.26650226
2
Properties=species:S:1:pos:R:3:forces:R:3 energy=-4.387857086140903 pbc="F F F"
Y        0.00000000       0.00000000       0.00000000       0.00000000       0.00000000       0.09749749
Y        0.00000000       0.00000000       5.94121212       0.00000000       0.00000000      -0.09749749
2
Properties=species:S:1:pos:R:3:forces:R:3 energy=-4.384625760892877 pbc="F F F"
Y        0.00000000       0.00000000       0.00000000       0.00000000       0.00000000       0.03343363
Y        0.00000000       0.00000000       6.00000000       0.00000000       0.00000000      -0.03343363
