2
Properties=species:S:1:pos:R:3:forces:R:3 energy=6121.062597636698 pbc="F F F"
Y        0.00000000       0.00000000       0.00000000       0.00000000       0.00000000  -98871.42968750
Y        0.00000000       0.00000000       0.18000000       0.00000000       0.00000000   98871.42968750
2
Properties=species:S:1:pos:R:3:forces:R:3 energy=2574.7881835741987 pbc="F F F"
Y        0.00000000       0.00000000       0.00000000       0.00000000       0.00000000  -34810.41015625
Y        0.00000000       0.00000000       0.23878788       0.00000000       0.00000000   34810.41015625
2
Properties=species:S:1:pos:R:3:forces:R:3 energy=1227.8672851366985 pbc="F F F"
Y        0.00000000       0.00000000       0.00000000       0.00000000       0.00000000  -14444.42285156
Y        0.00000000       0.00000000       0.29757576       0.00000000       0.00000000   14444.42285156
2
Properties=species:S:1:pos:R:3:forces:R:3 energy=641.4191039970261 pbc="F F F"
Y        0.00000000       0.00000000       0.00000000       0.00000000       0.00000000   -6643.72949219
Y        0.00000000       0.00000000       0.35636364       0.00000000       0.00000000    6643.72949219
2
Properties=species:S:1:pos:R:3:forces:R:3 energy=362.736700432573 pbc="F F F"
Y        0.00000000       0.00000000       0.00000000       0.00000000       0.00000000   -3277.13671875
Y        0.00000000       0.00000000       0.41515152       0.00000000       0.00000000    3277.13671875
2
Properties=species:S:1:pos:R:3:forces:R:3 energy=221.8849243095261 pbc="F F F"
Y        0.00000000       0.00000000       0.00000000       0.00000000       0.00000000   -1703.72570801
Y        0.00000000       0.00000000       0.47393939       0.00000000       0.00000000    1703.72570801
2
Properties=species:S:1:pos:R:3:forces:R:3 energy=147.18456116935334 pbc="F F F"
Y        0.00000000       0.00000000       0.00000000       0.00000000       0.00000000    -924.89526367
Y        0.00000000       0.00000000       0.53272727       0.00000000       0.00000000     924.89526367
2
Properties=species:S:1:pos:R:3:forces:R:3 energy=105.9197830574889 pbc="F F F"
Y        0.00000000       0.00000000       0.00000000       0.00000000       0.00000000    -521.44989014
Y        0.00000000       0.00000000       0.59151515       0.00000000       0.00000000     521.44989014
2
Properties=species:S:1:pos:R:3:forces:R:3 energy=82.28792427615481 pbc="F F F"
Y        0.00000000       0.00000000       0.00000000       0.00000000       0.00000000    -304.08236694
Y        0.00000000       0.00000000       0.65030303       0.00000000       0.00000000     304.08236694
2
Properties=species:S:1:pos:R:3:forces:R:3 energy=68.31819777701125 pbc="F F F"
Y        0.00000000       0.00000000       0.00000000       0.00000000       0.00000000    -182.46467590
Y        0.00000000       0.00000000       0.70909091       0.00000000       0.00000000     182.46467590
2
Properties=species:S:1:pos:R:3:forces:R:3 energy=59.85558953464357 pbc="F F F"
Y        0.00000000       0.00000000       0.00000000       0.00000000       0.00000000    -111.48612213
Y        0.00000000       0.00000000       0.76787879       0.00000000       0.00000000     111.48612213
2
Properties=species:S:1:pos:R:3:forces:R:3 energy=54.67750435321496 pbc="F F F"
Y        0.00000000       0.00000000       0.00000000       0.00000000       0.00000000     -68.07142639
Y        0.00000000       0.00000000       0.82666667       0.00000000       0.00000000      68.07142639
2
Properties=species:S:1:pos:R:3:forces:R:3 energy=51.533965127244635 pbc="F F F"
Y        0.00000000       0.00000000       0.00000000       0.00000000       0.00000000     -41.10998535
Y        0.00000000       0.00000000       0.88545455       0.00000000       0.00000000      41.10998535
2
Properties=species:S:1:pos:R:3:forces:R:3 energy=49.60996944700459 pbc="F F F"
Y        0.00000000       0.00000000       0.00000000       0.00000000       0.00000000     -26.15928459
Y        0.00000000       0.00000000       0.94424242       0.00000000       0.00000000      26.15928459
2
Properties=species:S:1:pos:R:3:forces:R:3 energy=48.26245092525174 pbc="F F F"
Y        0.00000000       0.00000000       0.00000000       0.00000000       0.00000000     -21.18906021
Y        0.00000000       0.00000000       1.00303030       0.00000000       0.00000000      21.18906021
2
Properties=species:S:1:pos:R:3:forces:R:3 energy=46.963875108801034 pbc="F F F"
Y        0.00000000       0.00000000       0.00000000       0.00000000       0.00000000     -24.10940552
Y        0.00000000       0.00000000       1.06181818       0.00000000       0.00000000      24.10940552
2
Properties=species:S:1:pos:R:3:forces:R:3 energy=45.31852059378382 pbc="F F F"
Y        0.00000000       0.00000000       0.00000000       0.00000000       0.00000000     -32.61117935
Y        0.00000000       0.00000000       1.12060606       0.00000000       0.00000000      32.61117935
2
Properties=species:S:1:pos:R:3:forces:R:3 energy=43.062509555897265 pbc="F F F"
Y        0.00000000       0.00000000       0.00000000       0.00000000       0.00000000     -44.54600525
Y        0.00000000       0.00000000       1.17939394       0.00000000       0.00000000      44.54600525
2
Properties=species:S:1:pos:R:3:forces:R:3 energy=40.05109718545093 pbc="F F F"
Y        0.00000000       0.00000000       0.00000000       0.00000000       0.00000000     -58.01236725
Y        0.00000000       0.00000000       1.23818182       0.00000000       0.00000000      58.01236725
2
Properties=species:S:1:pos:R:3:forces:R:3 energy=36.24617472011767 pbc="F F F"
Y        0.00000000       0.00000000       0.00000000       0.00000000       0.00000000     -71.23529816
Y        0.00000000       0.00000000       1.29696970       0.00000000       0.00000000      71.23529816
2
Properties=species:S:1:pos:R:3:forces:R:3 energy=31.719696944091133 pbc="F F F"
Y        0.00000000       0.00000000       0.00000000       0.00000000       0.00000000     -82.20130920
Y        0.00000000       0.00000000       1.35575758       0.00000000       0.00000000      82.20130920
2
Properties=species:S:1:pos:R:3:forces:R:3 energy=26.66594839782854 pbc="F F F"
Y        0.00000000       0.00000000       0.00000000       0.00000000       0.00000000     -88.87520599
Y        0.00000000       0.00000000       1.41454545       0.00000000       0.00000000      88.87520599
2
Properties=species:S:1:pos:R:3:forces:R:3 energy=21.382134141342394 pbc="F F F"
Y        0.00000000       0.00000000       0.00000000       0.00000000       0.00000000     -89.85028839
Y        0.00000000       0.00000000       1.47333333       0.00000000       0.00000000      89.85028839
2
Properties=species:S:1:pos:R:3:forces:R:3 energy=16.228640170778387 pbc="F F F"
Y        0.00000000       0.00000000       0.00000000       0.00000000       0.00000000     -84.39590454
Y        0.00000000       0.00000000       1.53212121       0.00000000       0.00000000      84.39590454
2
Properties=species:S:1:pos:R:3:forces:R:3 energy=11.571154968502242 pbc="F F F"
Y        0.00000000       0.00000000       0.00000000       0.00000000       0.00000000     -73.32781219
Y        0.00000000       0.00000000       1.59090909       0.00000000       0.00000000      73.32781219
2
Properties=species:S:1:pos:R:3:forces:R:3 energy=7.656892024874301 pbc="F F F"
Y        0.00000000       0.00000000       0.00000000       0.00000000       0.00000000     -59.70257950
Y        0.00000000       0.00000000       1.64969697       0.00000000       0.00000000      59.70257950
2
Properties=species:S:1:pos:R:3:forces:R:3 energy=4.5421964905832315 pbc="F F F"
Y        0.00000000       0.00000000       0.00000000       0.00000000       0.00000000     -46.51035690
Y        0.00000000       0.00000000       1.70848485       0.00000000       0.00000000      46.51035690
2
Properties=species:S:1:pos:R:3:forces:R:3 energy=2.144870914872728 pbc="F F F"
Y        0.00000000       0.00000000       0.00000000       0.00000000       0.00000000     -35.50630951
Y        0.00000000       0.00000000       1.76727273       0.00000000       0.00000000      35.50630951
2
Properties=species:S:1:pos:R:3:forces:R:3 energy=0.3109199612248133 pbc="F F F"
Y        0.00000000       0.00000000       0.00000000       0.00000000       0.00000000     -27.34738922
Y        0.00000000       0.00000000       1.82606061       0.00000000       0.00000000      27.34738922
2
Properties=species:S:1:pos:R:3:forces:R:3 energy=-1.1175774121673088 pbc="F F F"
Y        0.00000000       0.00000000       0.00000000       0.00000000       0.00000000     -21.57974434
Y        0.00000000       0.00000000       1.88484848       0.00000000       0.00000000      21.57974434
2
Properties=species:S:1:pos:R:3:forces:R:3 energy=-2.257034564177036 pbc="F F F"
Y        0.00000000       0.00000000       0.00000000       0.00000000       0.00000000     -17.38778496
Y        0.00000000       0.00000000       1.94363636       0.00000000       0.00000000      17.38778496
2
Properties=species:S:1:pos:R:3:forces:R:3 energy=-3.180528135111192 pbc="F F F"
Y        0.00000000       0.00000000       0.00000000       0.00000000       0.00000000     -14.15155315
Y        0.00000000       0.00000000       2.00242424       0.00000000       0.00000000      14.15155315
2
Properties=species:S:1:pos:R:3:forces:R:3 energy=-3.9319318652106316 pbc="F F F"
Y        0.00000000       0.00000000       0.00000000       0.00000000       0.00000000     -11.48148918
Y        0.00000000       0.00000000       2.06121212       0.00000000       0.00000000      11.48148918
2
Properties=species:S:1:pos:R:3:forces:R:3 energy=-4.536501731662797 pbc="F F F"
Y        0.00000000       0.00000000       0.00000000       0.00000000       0.00000000      -9.12272835
Y        0.00000000       0.00000000       2.12000000       0.00000000       0.00000000       9.12272835
2
Properties=species:S:1:pos:R:3:forces:R:3 energy=-5.007791847360642 pbc="F F F"
Y        0.00000000       0.00000000       0.00000000       0.00000000       0.00000000      -6.93482590
Y        0.00000000       0.00000000       2.17878788       0.00000000       0.00000000       6.93482590
2
Properties=species:S:1:pos:R:3:forces:R:3 energy=-5.355266203787477 pbc="F F F"
Y        0.00000000       0.00000000       0.00000000       0.00000000       0.00000000      -4.92560196
Y        0.00000000       0.00000000       2.23757576       0.00000000       0.00000000       4.92560196
2
Properties=species:S:1:pos:R:3:forces:R:3 energy=-5.593354612606005 pbc="F F F"
Y        0.00000000       0.00000000       0.00000000       0.00000000       0.00000000      -3.24531102
Y        0.00000000       0.00000000       2.29636364       0.00000000       0.00000000       3.24531102
2
Properties=species:S:1:pos:R:3:forces:R:3 energy=-5.746719066295915 pbc="F F F"
Y        0.00000000       0.00000000       0.00000000       0.00000000       0.00000000      -2.06490779
Y        0.00000000       0.00000000       2.35515152       0.00000000       0.00000000       2.06490779
2
Properties=species:S:1:pos:R:3:forces:R:3 energy=-5.847096249205145 pbc="F F F"
Y        0.00000000       0.00000000       0.00000000       0.00000000       0.00000000      -1.43835890
Y        0.00000000       0.00000000       2.41393939       0.00000000       0.00000000       1.43835890
2
Properties=species:S:1:pos:R:3:forces:R:3 energy=-5.924830021685619 pbc="F F F"
Y        0.00000000       0.00000000       0.00000000       0.00000000       0.00000000      -1.26722383
Y        0.00000000       0.00000000       2.47272727       0.00000000       0.00000000       1.26722383
2
Properties=species:S:1:pos:R:3:forces:R:3 energy=-6.0010995572938075 pbc="F F F"
Y        0.00000000       0.00000000       0.00000000       0.00000000       0.00000000      -1.35145891
Y        0.00000000       0.00000000       2.53151515       0.00000000       0.00000000       1.35145891
2
Properties=species:S:1:pos:R:3:forces:R:3 energy=-6.084580598701085 pbc="F F F"
Y        0.00000000       0.00000000       0.00000000       0.00000000       0.00000000      -1.48168480
Y        0.00000000       0.00000000       2.59030303       0.00000000       0.00000000       1.48168480
2
Properties=species:S:1:pos:R:3:forces:R:3 energy=-6.173362683530653 pbc="F F F"
Y        0.00000000       0.00000000       0.00000000       0.00000000       0.00000000      -1.51570642
Y        0.00000000       0.00000000       2.64909091       0.00000000       0.00000000       1.51570642
2
Properties=species:S:1:pos:R:3:forces:R:3 energy=-6.259813998444616 pbc="F F F"
Y        0.00000000       0.00000000       0.00000000       0.00000000       0.00000000      -1.40004754
Y        0.00000000       0.00000000       2.70787879       0.00000000       0.00000000       1.40004754
2
Properties=species:S:1:pos:R:3:forces:R:3 energy=-6.3352748966357835 pbc="F F F"
Y        0.00000000       0.00000000       0.00000000       0.00000000       0.00000000      -1.14763165
Y        0.00000000       0.00000000       2.76666667       0.00000000       0.00000000       1.14763165
2
Properties=species:S:1:pos:R:3:forces:R:3 energy=-6.392960056829525 pbc="F F F"
Y        0.00000000       0.00000000       0.00000000       0.00000000       0.00000000      -0.80422121
Y        0.00000000       0.00000000       2.82545455       0.00000000       0.00000000       0.80422121
2
Properties=species:S:1:pos:R:3:forces:R:3 energy=-6.429097962053388 pbc="F F F"
Y        0.00000000       0.00000000       0.00000000       0.00000000       0.00000000      -0.42314339
Y        0.00000000       0.00000000       2.88424242       0.00000000       0.00000000       0.42314339
2
Properties=species:S:1:pos:R:3:forces:R:3 energy=-6.442908372265535 pbc="F F F"
Y        0.00000000       0.00000000       0.00000000       0.00000000       0.00000000      -0.05172417
Y        0.00000000       0.00000000       2.94303030       0.00000000       0.00000000       0.05172417
2
Properties=species:S:1:pos:R:3:forces:R:3 energy=-6.436087749737528 pbc="F F F"
Y        0.00000000       0.00000000       0.00000000       0.00000000       0.00000000       0.27370274
Y        0.00000000       0.00000000       3.00181818       0.00000000       0.00000000      -0.27370274
2
Properties=species:S:1:pos:R:3:forces:R:3 energy=-6.412124073432971 pbc="F F F"
Y        0.00000000       0.00000000       0.00000000       0.00000000       0.00000000       0.52826798
Y        0.00000000       0.00000000       3.06060606       0.00000000       0.00000000      -0.52826798
2
Properties=species:S:1:pos:R:3:forces:R:3 energy=-6.375641779178781 pbc="F F F"
Y        0.00000000       0.00000000       0.00000000       0.00000000       0.00000000       0.69826323
Y        0.00000000       0.00000000       3.11939394       0.00000000       0.00000000      -0.69826323
2
Properties=species:S:1:pos:R:3:forces:R:3 energy=-6.33172964639621 pbc="F F F"
Y        0.00000000       0.00000000       0.00000000       0.00000000       0.00000000       0.78168744
Y        0.00000000       0.00000000       3.17818182       0.00000000       0.00000000      -0.78168744
2
Properties=species:S:1:pos:R:3:forces:R:3 energy=-6.285242188339008 pbc="F F F"
Y        0.00000000       0.00000000       0.00000000       0.00000000       0.00000000       0.78848767
Y        0.00000000       0.00000000       3.23696970       0.00000000       0.00000000      -0.78848767
2
Properties=species:S:1:pos:R:3:forces:R:3 energy=-6.240129089582492 pbc="F F F"
Y        0.00000000       0.00000000       0.00000000       0.00000000       0.00000000       0.73904234
Y        0.00000000       0.00000000       3.29575758       0.00000000       0.00000000      -0.73904234
2
Properties=species:S:1:pos:R:3:forces:R:3 energy=-6.198917036720458 pbc="F F F"
Y        0.00000000       0.00000000       0.00000000       0.00000000       0.00000000       0.66068643
Y        0.00000000       0.00000000       3.35454545       0.00000000       0.00000000      -0.66068643
2
Properties=species:S:1:pos:R:3:forces:R:3 energy=-6.162428439908512 pbc="F F F"
Y        0.00000000       0.00000000       0.00000000       0.00000000       0.00000000       0.58329821
Y        0.00000000       0.00000000       3.41333333       0.00000000       0.00000000      -0.58329821
2
Properties=species:S:1:pos:R:3:forces:R:3 energy=-6.1297729541455634 pbc="F F F"
Y        0.00000000       0.00000000       0.00000000       0.00000000       0.00000000       0.53430539
Y        0.00000000       0.00000000       3.47212121       0.00000000       0.00000000      -0.53430539
2
Properties=species:S:1:pos:R:3:forces:R:3 energy=-6.098686837564263 pbc="F F F"
Y        0.00000000       0.00000000       0.00000000       0.00000000       0.00000000       0.53165925
Y        0.00000000       0.00000000       3.53090909       0.00000000       0.00000000      -0.53165925
2
Properties=species:S:1:pos:R:3:forces:R:3 energy=-6.066325125180337 pbc="F F F"
Y        0.00000000       0.00000000       0.00000000       0.00000000       0.00000000       0.57626945
Y        0.00000000       0.00000000       3.58969697       0.00000000       0.00000000      -0.57626945
2
Properties=species:S:1:pos:R:3:forces:R:3 energy=-6.03029998076338 pbc="F F F"
Y        0.00000000       0.00000000       0.00000000       0.00000000       0.00000000       0.65297854
Y        0.00000000       0.00000000       3.64848485       0.00000000       0.00000000      -0.65297854
2
Properties=species:S:1:pos:R:3:forces:R:3 energy=-5.989306237472907 pbc="F F F"
Y        0.00000000       0.00000000       0.00000000       0.00000000       0.00000000       0.74237609
Y        0.00000000       0.00000000       3.70727273       0.00000000       0.00000000      -0.74237609
2
Properties=species:S:1:pos:R:3:forces:R:3 energy=-5.943046170119217 pbc="F F F"
Y        0.00000000       0.00000000       0.00000000       0.00000000       0.00000000       0.83033925
Y        0.00000000       0.00000000       3.76606061       0.00000000       0.00000000      -0.83033925
2
Properties=species:S:1:pos:R:3:forces:R:3 energy=-5.891868994184002 pbc="F F F"
Y        0.00000000       0.00000000       0.00000000       0.00000000       0.00000000       0.90866745
Y        0.00000000       0.00000000       3.82484848       0.00000000       0.00000000      -0.90866745
2
Properties=species:S:1:pos:R:3:forces:R:3 energy=-5.836487878781615 pbc="F F F"
Y        0.00000000       0.00000000       0.00000000       0.00000000       0.00000000       0.97284067
Y        0.00000000       0.00000000       3.88363636       0.00000000       0.00000000      -0.97284067
2
Properties=species:S:1:pos:R:3:forces:R:3 energy=-5.777802484650889 pbc="F F F"
Y        0.00000000       0.00000000       0.00000000       0.00000000       0.00000000       1.02099025
Y        0.00000000       0.00000000       3.94242424       0.00000000       0.00000000      -1.02099025
2
Properties=species:S:1:pos:R:3:forces:R:3 energy=-5.716750987022044 pbc="F F F"
Y        0.00000000       0.00000000       0.00000000       0.00000000       0.00000000       1.05359340
Y        0.00000000       0.00000000       4.00121212       0.00000000       0.00000000      -1.05359340
2
Properties=species:S:1:pos:R:3:forces:R:3 energy=-5.654188735893808 pbc="F F F"
Y        0.00000000       0.00000000       0.00000000       0.00000000       0.00000000       1.07279205
Y        0.00000000       0.00000000       4.06000000       0.00000000       0.00000000      -1.07279205
2
Properties=species:S:1:pos:R:3:forces:R:3 energy=-5.590825765858524 pbc="F F F"
Y        0.00000000       0.00000000       0.00000000       0.00000000       0.00000000       1.08133125
Y        0.00000000       0.00000000       4.11878788       0.00000000       0.00000000      -1.08133125
2
Properties=species:S:1:pos:R:3:forces:R:3 energy=-5.527214260361336 pbc="F F F"
Y        0.00000000       0.00000000       0.00000000       0.00000000       0.00000000       1.08144963
Y        0.00000000       0.00000000       4.17757576       0.00000000       0.00000000      -1.08144963
2
Properties=species:S:1:pos:R:3:forces:R:3 energy=-5.463815696401076 pbc="F F F"
Y        0.00000000       0.00000000       0.00000000       0.00000000       0.00000000       1.07418227
Y        0.00000000       0.00000000       4.23636364       0.00000000       0.00000000      -1.07418227
2
Properties=species:S:1:pos:R:3:forces:R:3 energy=-5.401065860454666 pbc="F F F"
Y        0.00000000       0.00000000       0.00000000       0.00000000       0.00000000       1.05919468
Y        0.00000000       0.00000000       4.29515152       0.00000000       0.00000000      -1.05919468
2
Properties=species:S:1:pos:R:3:forces:R:3 energy=-5.33945702753125 pbc="F F F"
Y        0.00000000       0.00000000       0.00000000       0.00000000       0.00000000       1.03521121
Y        0.00000000       0.00000000       4.35393939       0.00000000       0.00000000      -1.03521121
2
Properties=species:S:1:pos:R:3:forces:R:3 energy=-5.279557733243223 pbc="F F F"
Y        0.00000000       0.00000000       0.00000000       0.00000000       0.00000000       1.00076270
Y        0.00000000       0.00000000       4.41272727       0.00000000       0.00000000      -1.00076270
2
Properties=species:S:1:pos:R:3:forces:R:3 energy=-5.222011984858674 pbc="F F F"
Y        0.00000000       0.00000000       0.00000000       0.00000000       0.00000000       0.95507616
Y        0.00000000       0.00000000       4.47151515       0.00000000       0.00000000      -0.95507616
2
Properties=species:S:1:pos:R:3:forces:R:3 energy=-5.167472027262072 pbc="F F F"
Y        0.00000000       0.00000000       0.00000000       0.00000000       0.00000000       0.89877725
Y        0.00000000       0.00000000       4.53030303       0.00000000       0.00000000      -0.89877725
2
Properties=species:S:1:pos:R:3:forces:R:3 energy=-5.116500165184838 pbc="F F F"
Y        0.00000000       0.00000000       0.00000000       0.00000000       0.00000000       0.83425879
Y        0.00000000       0.00000000       4.58909091       0.00000000       0.00000000      -0.83425879
2
Properties=species:S:1:pos:R:3:forces:R:3 energy=-5.069466395271788 pbc="F F F"
Y        0.00000000       0.00000000       0.00000000       0.00000000       0.00000000       0.76560283
Y        0.00000000       0.00000000       4.64787879       0.00000000       0.00000000      -0.76560283
2
Properties=species:S:1:pos:R:3:forces:R:3 energy=-5.026462455015417 pbc="F F F"
Y        0.00000000       0.00000000       0.00000000       0.00000000       0.00000000       0.69801092
Y        0.00000000       0.00000000       4.70666667       0.00000000       0.00000000      -0.69801092
2
Properties=species:S:1:pos:R:3:forces:R:3 energy=-4.9872698556593695 pbc="F F F"
Y        0.00000000       0.00000000       0.00000000       0.00000000       0.00000000       0.63686293
Y        0.00000000       0.00000000       4.76545455       0.00000000       0.00000000      -0.63686293
2
Properties=species:S:1:pos:R:3:forces:R:3 energy=-4.951370499328801 pbc="F F F"
Y        0.00000000       0.00000000       0.00000000       0.00000000       0.00000000       0.58641160
Y        0.00000000       0.00000000       4.82424242       0.00000000       0.00000000      -0.58641160
2
Properties=species:S:1:pos:R:3:forces:R:3 energy=-4.91807433834025 pbc="F F F"
Y        0.00000000       0.00000000       0.00000000       0.00000000       0.00000000       0.54854017
Y        0.00000000       0.00000000       4.88303030       0.00000000       0.00000000      -0.54854017
2
Properties=species:S:1:pos:R:3:forces:R:3 energy=-4.886656119760087 pbc="F F F"
Y        0.00000000       0.00000000       0.00000000       0.00000000       0.00000000       0.52182573
Y        0.00000000       0.00000000       4.94181818       0.00000000       0.00000000      -0.52182573
2
Properties=species:S:1:pos:R:3:forces:R:3 energy=-4.856583307230492 pbc="F F F"
Y        0.00000000       0.00000000       0.00000000       0.00000000       0.00000000       0.50201809
Y        0.00000000       0.00000000       5.00060606       0.00000000       0.00000000      -0.50201809
2
Properties=species:S:1:pos:R:3:forces:R:3 energy=-4.8275842433405005 pbc="F F F"
Y        0.00000000       0.00000000       0.00000000       0.00000000       0.00000000       0.48469672
Y        0.00000000       0.00000000       5.05939394       0.00000000       0.00000000      -0.48469672
2
Properties=species:S:1:pos:R:3:forces:R:3 energy=-4.799542578544713 pbc="F F F"
Y        0.00000000       0.00000000       0.00000000       0.00000000       0.00000000       0.47036380
Y        0.00000000       0.00000000       5.11818182       0.00000000       0.00000000      -0.47036380
2
Properties=species:S:1:pos:R:3:forces:R:3 energy=-4.772051320714419 pbc="F F F"
Y        0.00000000       0.00000000       0.00000000       0.00000000       0.00000000       0.46795255
Y        0.00000000       0.00000000       5.17696970       0.00000000       0.00000000      -0.46795255
2
Properties=species:S:1:pos:R:3:forces:R:3 energy=-4.744074350447362 pbc="F F F"
Y        0.00000000       0.00000000       0.00000000       0.00000000       0.00000000       0.48784137
Y        0.00000000       0.00000000       5.23575758       0.00000000       0.00000000      -0.48784137
2
Properties=species:S:1:pos:R:3:forces:R:3 energy=-4.714372200299986 pbc="F F F"
Y        0.00000000       0.00000000       0.00000000       0.00000000       0.00000000       0.52318329
Y        0.00000000       0.00000000       5.29454545       0.00000000       0.00000000      -0.52318329
2
Properties=species:S:1:pos:R:3:forces:R:3 energy=-4.682847077698359 pbc="F F F"
Y        0.00000000       0.00000000       0.00000000       0.00000000       0.00000000       0.54402006
Y        0.00000000       0.00000000       5.35333333       0.00000000       0.00000000      -0.54402006
2
Properties=species:S:1:pos:R:3:forces:R:3 energy=-4.651193525911569 pbc="F F F"
Y        0.00000000       0.00000000       0.00000000       0.00000000       0.00000000       0.52637810
Y        0.00000000       0.00000000       5.41212121       0.00000000       0.00000000      -0.52637810
2
Properties=species:S:1:pos:R:3:forces:R:3 energy=-4.6214460747663395 pbc="F F F"
Y        0.00000000       0.00000000       0.00000000       0.00000000       0.00000000       0.48508677
Y        0.00000000       0.00000000       5.47090909       0.00000000       0.00000000      -0.48508677
2
Properties=species:S:1:pos:R:3:forces:R:3 energy=-4.593667717837746 pbc="F F F"
Y        0.00000000       0.00000000       0.00000000       0.00000000       0.00000000       0.46845645
Y        0.00000000       0.00000000       5.52969697       0.00000000       0.00000000      -0.46845645
2
Properties=species:S:1:pos:R:3:forces:R:3 energy=-4.565040959455367 pbc="F F F"
Y        0.00000000       0.00000000       0.00000000       0.00000000       0.00000000       0.51746905
Y        0.00000000       0.00000000       5.58848485       0.00000000       0.00000000      -0.51746905
2
Properties=species:S:1:pos:R:3:forces:R:3 energy=-4.531819808630936 pbc="F F F"
Y        0.00000000       0.00000000       0.00000000       0.00000000       0.00000000       0.61639982
Y        0.00000000       0.00000000       5.64727273       0.00000000       0.00000000      -0.61639982
2
Properties=species:S:1:pos:R:3:forces:R:3 energy=-4.493162589800325 pbc="F F F"
Y        0.00000000       0.00000000       0.00000000       0.00000000       0.00000000       0.68498510
Y        0.00000000       0.00000000       5.70606061       0.00000000       0.00000000      -0.68498510
2
Properties=species:S:1:pos:R:3:forces:R:3 energy=-4.453431305453384 pbc="F F F"
Y        0.00000000       0.00000000       0.00000000       0.00000000       0.00000000       0.64197022
Y        0.00000000       0.00000000       5.76484848       0.00000000       0.00000000      -0.64197022
2
Properties=species:S:1:pos:R:3:forces:R:3 energy=-4.420040977005373 pbc="F F F"
Y        0.00000000       0.00000000       0.00000000       0.00000000       0.00000000       0.47887719
Y        0.00000000       0.00000000       5.82363636       0.00000000       0.00000000      -0.47887719
2
Properties=species:S:1:pos:R:3:forces:R:3 energy=-4.398205814974023 pbc="F F F"
Y        0.00000000       0.00000000       0.00000000       0.00000000       0.00000000       0.26656902
Y        0.00000000       0.00000000       5.88242424       0.00000000       0.00000000      -0.26656902
2
Properties=species:S:1:pos:R:3:forces:R:3 energy=-4.387857086140903 pbc="F F F"
Y        0.00000000       0.00000000       0.00000000       0.00000000       0.00000000       0.09751458
Y        0.00000000       0.00000000       5.94121212       0.00000000       0.00000000      -0.09751458
2
Properties=species:S:1:pos:R:3:forces:R:3 energy=-4.384625760892877 pbc="F F F"
Y        0.00000000       0.00000000       0.00000000       0.00000000       0.00000000       0.03343363
Y        0.00000000       0.00000000       6.00000000       0.00000000       0.00000000      -0.03343363
