2
Properties=species:S:1:pos:R:3:forces:R:3 energy=13709.478970392882 pbc="F F F"
Yb       0.00000000       0.00000000       0.00000000       0.00000000       0.00000000 -239064.54687500
Yb       0.00000000       0.00000000       0.18000000       0.00000000       0.00000000  239064.54687500
2
Properties=species:S:1:pos:R:3:forces:R:3 energy=5338.548306330382 pbc="F F F"
Yb       0.00000000       0.00000000       0.00000000       0.00000000       0.00000000  -79435.58593750
Yb       0.00000000       0.00000000       0.23878788       0.00000000       0.00000000   79435.58593750
2
Properties=species:S:1:pos:R:3:forces:R:3 energy=2340.7248200022564 pbc="F F F"
Yb       0.00000000       0.00000000       0.00000000       0.00000000       0.00000000  -31061.16210938
Yb       0.00000000       0.00000000       0.29757576       0.00000000       0.00000000   31061.16210938
2
Properties=species:S:1:pos:R:3:forces:R:3 energy=1112.6580475476546 pbc="F F F"
Yb       0.00000000       0.00000000       0.00000000       0.00000000       0.00000000  -13438.03613281
Yb       0.00000000       0.00000000       0.35636364       0.00000000       0.00000000   13438.03613281
2
Properties=species:S:1:pos:R:3:forces:R:3 energy=563.5575836804671 pbc="F F F"
Yb       0.00000000       0.00000000       0.00000000       0.00000000       0.00000000   -6249.73925781
Yb       0.00000000       0.00000000       0.41515152       0.00000000       0.00000000    6249.73925781
2
Properties=species:S:1:pos:R:3:forces:R:3 energy=301.33007514188085 pbc="F F F"
Yb       0.00000000       0.00000000       0.00000000       0.00000000       0.00000000   -3081.56152344
Yb       0.00000000       0.00000000       0.47393939       0.00000000       0.00000000    3081.56152344
2
Properties=species:S:1:pos:R:3:forces:R:3 energy=169.034634480724 pbc="F F F"
Yb       0.00000000       0.00000000       0.00000000       0.00000000       0.00000000   -1598.03503418
Yb       0.00000000       0.00000000       0.53272727       0.00000000       0.00000000    1598.03503418
2
Properties=species:S:1:pos:R:3:forces:R:3 energy=99.0281571564452 pbc="F F F"
Yb       0.00000000       0.00000000       0.00000000       0.00000000       0.00000000    -865.97650146
Yb       0.00000000       0.00000000       0.59151515       0.00000000       0.00000000     865.97650146
2
Properties=species:S:1:pos:R:3:forces:R:3 energy=60.428360899293054 pbc="F F F"
Yb       0.00000000       0.00000000       0.00000000       0.00000000       0.00000000    -487.00103760
Yb       0.00000000       0.00000000       0.65030303       0.00000000       0.00000000     487.00103760
2
Properties=species:S:1:pos:R:3:forces:R:3 energy=38.41783621922929 pbc="F F F"
Yb       0.00000000       0.00000000       0.00000000       0.00000000       0.00000000    -281.94046021
Yb       0.00000000       0.00000000       0.70909091       0.00000000       0.00000000     281.94046021
2
Properties=species:S:1:pos:R:3:forces:R:3 energy=25.54525864702762 pbc="F F F"
Yb       0.00000000       0.00000000       0.00000000       0.00000000       0.00000000    -166.69828796
Yb       0.00000000       0.00000000       0.76787879       0.00000000       0.00000000     166.69828796
2
Properties=species:S:1:pos:R:3:forces:R:3 energy=17.8707516579698 pbc="F F F"
Yb       0.00000000       0.00000000       0.00000000       0.00000000       0.00000000    -100.42465210
Yb       0.00000000       0.00000000       0.82666667       0.00000000       0.00000000     100.42465210
2
Properties=species:S:1:pos:R:3:forces:R:3 energy=13.194001696611883 pbc="F F F"
Yb       0.00000000       0.00000000       0.00000000       0.00000000       0.00000000     -62.16039276
Yb       0.00000000       0.00000000       0.88545455       0.00000000       0.00000000      62.16039276
2
Properties=species:S:1:pos:R:3:forces:R:3 energy=10.254929385439413 pbc="F F F"
Yb       0.00000000       0.00000000       0.00000000       0.00000000       0.00000000     -39.73340607
Yb       0.00000000       0.00000000       0.94424242       0.00000000       0.00000000      39.73340607
2
Properties=species:S:1:pos:R:3:forces:R:3 energy=8.355328814590276 pbc="F F F"
Yb       0.00000000       0.00000000       0.00000000       0.00000000       0.00000000     -25.95872498
Yb       0.00000000       0.00000000       1.00303030       0.00000000       0.00000000      25.95872498
2
Properties=species:S:1:pos:R:3:forces:R:3 energy=7.102441175795382 pbc="F F F"
Yb       0.00000000       0.00000000       0.00000000       0.00000000       0.00000000     -17.36258125
Yb       0.00000000       0.00000000       1.06181818       0.00000000       0.00000000      17.36258125
2
Properties=species:S:1:pos:R:3:forces:R:3 energy=6.244925621972795 pbc="F F F"
Yb       0.00000000       0.00000000       0.00000000       0.00000000       0.00000000     -12.30316830
Yb       0.00000000       0.00000000       1.12060606       0.00000000       0.00000000      12.30316830
2
Properties=species:S:1:pos:R:3:forces:R:3 energy=5.6072646574274465 pbc="F F F"
Yb       0.00000000       0.00000000       0.00000000       0.00000000       0.00000000      -9.72981644
Yb       0.00000000       0.00000000       1.17939394       0.00000000       0.00000000       9.72981644
2
Properties=species:S:1:pos:R:3:forces:R:3 energy=5.06952282663741 pbc="F F F"
Yb       0.00000000       0.00000000       0.00000000       0.00000000       0.00000000      -8.75922775
Yb       0.00000000       0.00000000       1.23818182       0.00000000       0.00000000       8.75922775
2
Properties=species:S:1:pos:R:3:forces:R:3 energy=4.562338493581295 pbc="F F F"
Yb       0.00000000       0.00000000       0.00000000       0.00000000       0.00000000      -8.56671906
Yb       0.00000000       0.00000000       1.29696970       0.00000000       0.00000000       8.56671906
2
Properties=species:S:1:pos:R:3:forces:R:3 energy=4.058444284567793 pbc="F F F"
Yb       0.00000000       0.00000000       0.00000000       0.00000000       0.00000000      -8.58030128
Yb       0.00000000       0.00000000       1.35575758       0.00000000       0.00000000       8.58030128
2
Properties=species:S:1:pos:R:3:forces:R:3 energy=3.555262506618675 pbc="F F F"
Yb       0.00000000       0.00000000       0.00000000       0.00000000       0.00000000      -8.50713253
Yb       0.00000000       0.00000000       1.41454545       0.00000000       0.00000000       8.50713253
2
Properties=species:S:1:pos:R:3:forces:R:3 energy=3.0633454353323515 pbc="F F F"
Yb       0.00000000       0.00000000       0.00000000       0.00000000       0.00000000      -8.17547989
Yb       0.00000000       0.00000000       1.47333333       0.00000000       0.00000000       8.17547989
2
Properties=species:S:1:pos:R:3:forces:R:3 energy=2.600448686837627 pbc="F F F"
Yb       0.00000000       0.00000000       0.00000000       0.00000000       0.00000000      -7.52143431
Yb       0.00000000       0.00000000       1.53212121       0.00000000       0.00000000       7.52143431
2
Properties=species:S:1:pos:R:3:forces:R:3 energy=2.1836837019407946 pbc="F F F"
Yb       0.00000000       0.00000000       0.00000000       0.00000000       0.00000000      -6.63246393
Yb       0.00000000       0.00000000       1.59090909       0.00000000       0.00000000       6.63246393
2
Properties=species:S:1:pos:R:3:forces:R:3 energy=1.8217011740028604 pbc="F F F"
Yb       0.00000000       0.00000000       0.00000000       0.00000000       0.00000000      -5.68646240
Yb       0.00000000       0.00000000       1.64969697       0.00000000       0.00000000       5.68646240
2
Properties=species:S:1:pos:R:3:forces:R:3 energy=1.5137690779585102 pbc="F F F"
Yb       0.00000000       0.00000000       0.00000000       0.00000000       0.00000000      -4.80410290
Yb       0.00000000       0.00000000       1.70848485       0.00000000       0.00000000       4.80410290
2
Properties=species:S:1:pos:R:3:forces:R:3 energy=1.255177802070077 pbc="F F F"
Yb       0.00000000       0.00000000       0.00000000       0.00000000       0.00000000      -4.00627136
Yb       0.00000000       0.00000000       1.76727273       0.00000000       0.00000000       4.00627136
2
Properties=species:S:1:pos:R:3:forces:R:3 energy=1.041405595768937 pbc="F F F"
Yb       0.00000000       0.00000000       0.00000000       0.00000000       0.00000000      -3.27595520
Yb       0.00000000       0.00000000       1.82606061       0.00000000       0.00000000       3.27595520
2
Properties=species:S:1:pos:R:3:forces:R:3 energy=0.8690399699326695 pbc="F F F"
Yb       0.00000000       0.00000000       0.00000000       0.00000000       0.00000000      -2.59535503
Yb       0.00000000       0.00000000       1.88484848       0.00000000       0.00000000       2.59535503
2
Properties=species:S:1:pos:R:3:forces:R:3 energy=0.7353919799735803 pbc="F F F"
Yb       0.00000000       0.00000000       0.00000000       0.00000000       0.00000000      -1.95951343
Yb       0.00000000       0.00000000       1.94363636       0.00000000       0.00000000       1.95951343
2
Properties=species:S:1:pos:R:3:forces:R:3 energy=0.6374830027303667 pbc="F F F"
Yb       0.00000000       0.00000000       0.00000000       0.00000000       0.00000000      -1.38380027
Yb       0.00000000       0.00000000       2.00242424       0.00000000       0.00000000       1.38380027
2
Properties=species:S:1:pos:R:3:forces:R:3 energy=0.5708797801090698 pbc="F F F"
Yb       0.00000000       0.00000000       0.00000000       0.00000000       0.00000000      -0.90059072
Yb       0.00000000       0.00000000       2.06121212       0.00000000       0.00000000       0.90059072
2
Properties=species:S:1:pos:R:3:forces:R:3 energy=0.5291154437383505 pbc="F F F"
Yb       0.00000000       0.00000000       0.00000000       0.00000000       0.00000000      -0.54324716
Yb       0.00000000       0.00000000       2.12000000       0.00000000       0.00000000       0.54324716
2
Properties=species:S:1:pos:R:3:forces:R:3 energy=0.5042445609252351 pbc="F F F"
Yb       0.00000000       0.00000000       0.00000000       0.00000000       0.00000000      -0.32589287
Yb       0.00000000       0.00000000       2.17878788       0.00000000       0.00000000       0.32589287
2
Properties=species:S:1:pos:R:3:forces:R:3 energy=0.48829045347159905 pbc="F F F"
Yb       0.00000000       0.00000000       0.00000000       0.00000000       0.00000000      -0.23600629
Yb       0.00000000       0.00000000       2.23757576       0.00000000       0.00000000       0.23600629
2
Properties=species:S:1:pos:R:3:forces:R:3 energy=0.4745460042740527 pbc="F F F"
Yb       0.00000000       0.00000000       0.00000000       0.00000000       0.00000000      -0.24566656
Yb       0.00000000       0.00000000       2.29636364       0.00000000       0.00000000       0.24566656
2
Properties=species:S:1:pos:R:3:forces:R:3 energy=0.4580133316940741 pbc="F F F"
Yb       0.00000000       0.00000000       0.00000000       0.00000000       0.00000000      -0.32661989
Yb       0.00000000       0.00000000       2.35515152       0.00000000       0.00000000       0.32661989
2
Properties=species:S:1:pos:R:3:forces:R:3 energy=0.4351868856718253 pbc="F F F"
Yb       0.00000000       0.00000000       0.00000000       0.00000000       0.00000000      -0.45659164
Yb       0.00000000       0.00000000       2.41393939       0.00000000       0.00000000       0.45659164
2
Properties=species:S:1:pos:R:3:forces:R:3 energy=0.4037109594372728 pbc="F F F"
Yb       0.00000000       0.00000000       0.00000000       0.00000000       0.00000000      -0.61818534
Yb       0.00000000       0.00000000       2.47272727       0.00000000       0.00000000       0.61818534
2
Properties=species:S:1:pos:R:3:forces:R:3 energy=0.3621879584989791 pbc="F F F"
Yb       0.00000000       0.00000000       0.00000000       0.00000000       0.00000000      -0.79581535
Yb       0.00000000       0.00000000       2.53151515       0.00000000       0.00000000       0.79581535
2
Properties=species:S:1:pos:R:3:forces:R:3 energy=0.3101364199672479 pbc="F F F"
Yb       0.00000000       0.00000000       0.00000000       0.00000000       0.00000000      -0.97374922
Yb       0.00000000       0.00000000       2.59030303       0.00000000       0.00000000       0.97374922
2
Properties=species:S:1:pos:R:3:forces:R:3 energy=0.24800012314528397 pbc="F F F"
Yb       0.00000000       0.00000000       0.00000000       0.00000000       0.00000000      -1.13636768
Yb       0.00000000       0.00000000       2.64909091       0.00000000       0.00000000       1.13636768
2
Properties=species:S:1:pos:R:3:forces:R:3 energy=0.177098591623506 pbc="F F F"
Yb       0.00000000       0.00000000       0.00000000       0.00000000       0.00000000      -1.26992226
Yb       0.00000000       0.00000000       2.70787879       0.00000000       0.00000000       1.26992226
2
Properties=species:S:1:pos:R:3:forces:R:3 energy=0.09946011040720276 pbc="F F F"
Yb       0.00000000       0.00000000       0.00000000       0.00000000       0.00000000      -1.36419559
Yb       0.00000000       0.00000000       2.76666667       0.00000000       0.00000000       1.36419559
2
Properties=species:S:1:pos:R:3:forces:R:3 energy=0.01759690586798908 pbc="F F F"
Yb       0.00000000       0.00000000       0.00000000       0.00000000       0.00000000      -1.41289961
Yb       0.00000000       0.00000000       2.82545455       0.00000000       0.00000000       1.41289961
2
Properties=species:S:1:pos:R:3:forces:R:3 energy=-0.06570821177204549 pbc="F F F"
Yb       0.00000000       0.00000000       0.00000000       0.00000000       0.00000000      -1.41298616
Yb       0.00000000       0.00000000       2.88424242       0.00000000       0.00000000       1.41298616
2
Properties=species:S:1:pos:R:3:forces:R:3 energy=-0.1475712112336519 pbc="F F F"
Yb       0.00000000       0.00000000       0.00000000       0.00000000       0.00000000      -1.36391771
Yb       0.00000000       0.00000000       2.94303030       0.00000000       0.00000000       1.36391771
2
Properties=species:S:1:pos:R:3:forces:R:3 energy=-0.22514838600964426 pbc="F F F"
Yb       0.00000000       0.00000000       0.00000000       0.00000000       0.00000000      -1.26783037
Yb       0.00000000       0.00000000       3.00181818       0.00000000       0.00000000       1.26783037
2
Properties=species:S:1:pos:R:3:forces:R:3 energy=-0.29582494229301715 pbc="F F F"
Yb       0.00000000       0.00000000       0.00000000       0.00000000       0.00000000      -1.13043582
Yb       0.00000000       0.00000000       3.06060606       0.00000000       0.00000000       1.13043582
2
Properties=species:S:1:pos:R:3:forces:R:3 energy=-0.3574431097042991 pbc="F F F"
Yb       0.00000000       0.00000000       0.00000000       0.00000000       0.00000000      -0.96169251
Yb       0.00000000       0.00000000       3.11939394       0.00000000       0.00000000       0.96169251
2
Properties=species:S:1:pos:R:3:forces:R:3 energy=-0.40854934891889677 pbc="F F F"
Yb       0.00000000       0.00000000       0.00000000       0.00000000       0.00000000      -0.77529073
Yb       0.00000000       0.00000000       3.17818182       0.00000000       0.00000000       0.77529073
2
Properties=species:S:1:pos:R:3:forces:R:3 energy=-0.44855762409728506 pbc="F F F"
Yb       0.00000000       0.00000000       0.00000000       0.00000000       0.00000000      -0.58676559
Yb       0.00000000       0.00000000       3.23696970       0.00000000       0.00000000       0.58676559
2
Properties=species:S:1:pos:R:3:forces:R:3 energy=-0.47778624595304336 pbc="F F F"
Yb       0.00000000       0.00000000       0.00000000       0.00000000       0.00000000      -0.41076824
Yb       0.00000000       0.00000000       3.29575758       0.00000000       0.00000000       0.41076824
2
Properties=species:S:1:pos:R:3:forces:R:3 energy=-0.49732245304377687 pbc="F F F"
Yb       0.00000000       0.00000000       0.00000000       0.00000000       0.00000000      -0.25850722
Yb       0.00000000       0.00000000       3.35454545       0.00000000       0.00000000       0.25850722
2
Properties=species:S:1:pos:R:3:forces:R:3 energy=-0.5087703704868326 pbc="F F F"
Yb       0.00000000       0.00000000       0.00000000       0.00000000       0.00000000      -0.13617004
Yb       0.00000000       0.00000000       3.41333333       0.00000000       0.00000000       0.13617004
2
Properties=species:S:1:pos:R:3:forces:R:3 energy=-0.5139421677844489 pbc="F F F"
Yb       0.00000000       0.00000000       0.00000000       0.00000000       0.00000000      -0.04477743
Yb       0.00000000       0.00000000       3.47212121       0.00000000       0.00000000       0.04477743
2
Properties=species:S:1:pos:R:3:forces:R:3 energy=-0.5145805757356477 pbc="F F F"
Yb       0.00000000       0.00000000       0.00000000       0.00000000       0.00000000       0.01887267
Yb       0.00000000       0.00000000       3.53090909       0.00000000       0.00000000      -0.01887267
2
Properties=species:S:1:pos:R:3:forces:R:3 energy=-0.512150395724455 pbc="F F F"
Yb       0.00000000       0.00000000       0.00000000       0.00000000       0.00000000       0.06076837
Yb       0.00000000       0.00000000       3.58969697       0.00000000       0.00000000      -0.06076837
2
Properties=species:S:1:pos:R:3:forces:R:3 energy=-0.5077194894191683 pbc="F F F"
Yb       0.00000000       0.00000000       0.00000000       0.00000000       0.00000000       0.08816944
Yb       0.00000000       0.00000000       3.64848485       0.00000000       0.00000000      -0.08816944
2
Properties=species:S:1:pos:R:3:forces:R:3 energy=-0.5019281344813469 pbc="F F F"
Yb       0.00000000       0.00000000       0.00000000       0.00000000       0.00000000       0.10815340
Yb       0.00000000       0.00000000       3.70727273       0.00000000       0.00000000      -0.10815340
2
Properties=species:S:1:pos:R:3:forces:R:3 energy=-0.49503675896678584 pbc="F F F"
Yb       0.00000000       0.00000000       0.00000000       0.00000000       0.00000000       0.12633801
Yb       0.00000000       0.00000000       3.76606061       0.00000000       0.00000000      -0.12633801
2
Properties=species:S:1:pos:R:3:forces:R:3 energy=-0.48704260849817343 pbc="F F F"
Yb       0.00000000       0.00000000       0.00000000       0.00000000       0.00000000       0.14602779
Yb       0.00000000       0.00000000       3.82484848       0.00000000       0.00000000      -0.14602779
2
Properties=species:S:1:pos:R:3:forces:R:3 energy=-0.4778213187997696 pbc="F F F"
Yb       0.00000000       0.00000000       0.00000000       0.00000000       0.00000000       0.16800655
Yb       0.00000000       0.00000000       3.88363636       0.00000000       0.00000000      -0.16800655
2
Properties=species:S:1:pos:R:3:forces:R:3 energy=-0.4672685330415987 pbc="F F F"
Yb       0.00000000       0.00000000       0.00000000       0.00000000       0.00000000       0.19099362
Yb       0.00000000       0.00000000       3.94242424       0.00000000       0.00000000      -0.19099362
2
Properties=species:S:1:pos:R:3:forces:R:3 energy=-0.4553929282668575 pbc="F F F"
Yb       0.00000000       0.00000000       0.00000000       0.00000000       0.00000000       0.21257193
Yb       0.00000000       0.00000000       4.00121212       0.00000000       0.00000000      -0.21257193
2
Properties=species:S:1:pos:R:3:forces:R:3 energy=-0.4423528670807596 pbc="F F F"
Yb       0.00000000       0.00000000       0.00000000       0.00000000       0.00000000       0.23021559
Yb       0.00000000       0.00000000       4.06000000       0.00000000       0.00000000      -0.23021559
2
Properties=species:S:1:pos:R:3:forces:R:3 energy=-0.42843938686009625 pbc="F F F"
Yb       0.00000000       0.00000000       0.00000000       0.00000000       0.00000000       0.24206665
Yb       0.00000000       0.00000000       4.11878788       0.00000000       0.00000000      -0.24206665
2
Properties=species:S:1:pos:R:3:forces:R:3 energy=-0.41402223595893595 pbc="F F F"
Yb       0.00000000       0.00000000       0.00000000       0.00000000       0.00000000       0.24728608
Yb       0.00000000       0.00000000       4.17757576       0.00000000       0.00000000      -0.24728608
2
Properties=species:S:1:pos:R:3:forces:R:3 energy=-0.3994920058100906 pbc="F F F"
Yb       0.00000000       0.00000000       0.00000000       0.00000000       0.00000000       0.24600886
Yb       0.00000000       0.00000000       4.23636364       0.00000000       0.00000000      -0.24600886
2
Properties=species:S:1:pos:R:3:forces:R:3 energy=-0.3852088195375076 pbc="F F F"
Yb       0.00000000       0.00000000       0.00000000       0.00000000       0.00000000       0.23905335
Yb       0.00000000       0.00000000       4.29515152       0.00000000       0.00000000      -0.23905335
2
Properties=species:S:1:pos:R:3:forces:R:3 energy=-0.37147403617308794 pbc="F F F"
Yb       0.00000000       0.00000000       0.00000000       0.00000000       0.00000000       0.22757073
Yb       0.00000000       0.00000000       4.35393939       0.00000000       0.00000000      -0.22757073
2
Properties=species:S:1:pos:R:3:forces:R:3 energy=-0.35851752952477217 pbc="F F F"
Yb       0.00000000       0.00000000       0.00000000       0.00000000       0.00000000       0.21275601
Yb       0.00000000       0.00000000       4.41272727       0.00000000       0.00000000      -0.21275601
2
Properties=species:S:1:pos:R:3:forces:R:3 energy=-0.3465022915734287 pbc="F F F"
Yb       0.00000000       0.00000000       0.00000000       0.00000000       0.00000000       0.19572493
Yb       0.00000000       0.00000000       4.47151515       0.00000000       0.00000000      -0.19572493
2
Properties=species:S:1:pos:R:3:forces:R:3 energy=-0.33552780271912963 pbc="F F F"
Yb       0.00000000       0.00000000       0.00000000       0.00000000       0.00000000       0.17752178
Yb       0.00000000       0.00000000       4.53030303       0.00000000       0.00000000      -0.17752178
2
Properties=species:S:1:pos:R:3:forces:R:3 energy=-0.3256323981279609 pbc="F F F"
Yb       0.00000000       0.00000000       0.00000000       0.00000000       0.00000000       0.15920497
Yb       0.00000000       0.00000000       4.58909091       0.00000000       0.00000000      -0.15920497
2
Properties=species:S:1:pos:R:3:forces:R:3 energy=-0.31678960579816706 pbc="F F F"
Yb       0.00000000       0.00000000       0.00000000       0.00000000       0.00000000       0.14190000
Yb       0.00000000       0.00000000       4.64787879       0.00000000       0.00000000      -0.14190000
2
Properties=species:S:1:pos:R:3:forces:R:3 energy=-0.30890647200240007 pbc="F F F"
Yb       0.00000000       0.00000000       0.00000000       0.00000000       0.00000000       0.12672524
Yb       0.00000000       0.00000000       4.70666667       0.00000000       0.00000000      -0.12672524
2
Properties=species:S:1:pos:R:3:forces:R:3 energy=-0.30182972707666034 pbc="F F F"
Yb       0.00000000       0.00000000       0.00000000       0.00000000       0.00000000       0.11459854
Yb       0.00000000       0.00000000       4.76545455       0.00000000       0.00000000      -0.11459854
2
Properties=species:S:1:pos:R:3:forces:R:3 energy=-0.29536353493315143 pbc="F F F"
Yb       0.00000000       0.00000000       0.00000000       0.00000000       0.00000000       0.10595012
Yb       0.00000000       0.00000000       4.82424242       0.00000000       0.00000000      -0.10595012
2
Properties=species:S:1:pos:R:3:forces:R:3 energy=-0.2893096986230535 pbc="F F F"
Yb       0.00000000       0.00000000       0.00000000       0.00000000       0.00000000       0.10048931
Yb       0.00000000       0.00000000       4.88303030       0.00000000       0.00000000      -0.10048931
2
Properties=species:S:1:pos:R:3:forces:R:3 energy=-0.2835070358940154 pbc="F F F"
Yb       0.00000000       0.00000000       0.00000000       0.00000000       0.00000000       0.09713601
Yb       0.00000000       0.00000000       4.94181818       0.00000000       0.00000000      -0.09713601
2
Properties=species:S:1:pos:R:3:forces:R:3 energy=-0.2778780857649803 pbc="F F F"
Yb       0.00000000       0.00000000       0.00000000       0.00000000       0.00000000       0.09432791
Yb       0.00000000       0.00000000       5.00060606       0.00000000       0.00000000      -0.09432791
2
Properties=species:S:1:pos:R:3:forces:R:3 energy=-0.2724302320949461 pbc="F F F"
Yb       0.00000000       0.00000000       0.00000000       0.00000000       0.00000000       0.09085748
Yb       0.00000000       0.00000000       5.05939394       0.00000000       0.00000000      -0.09085748
2
Properties=species:S:1:pos:R:3:forces:R:3 energy=-0.2672006068404089 pbc="F F F"
Yb       0.00000000       0.00000000       0.00000000       0.00000000       0.00000000       0.08722074
Yb       0.00000000       0.00000000       5.11818182       0.00000000       0.00000000      -0.08722074
2
Properties=species:S:1:pos:R:3:forces:R:3 energy=-0.262119925120273 pbc="F F F"
Yb       0.00000000       0.00000000       0.00000000       0.00000000       0.00000000       0.08645684
Yb       0.00000000       0.00000000       5.17696970       0.00000000       0.00000000      -0.08645684
2
Properties=species:S:1:pos:R:3:forces:R:3 energy=-0.25690574221654794 pbc="F F F"
Yb       0.00000000       0.00000000       0.00000000       0.00000000       0.00000000       0.09214367
Yb       0.00000000       0.00000000       5.23575758       0.00000000       0.00000000      -0.09214367
2
Properties=species:S:1:pos:R:3:forces:R:3 energy=-0.25117826869094084 pbc="F F F"
Yb       0.00000000       0.00000000       0.00000000       0.00000000       0.00000000       0.10305811
Yb       0.00000000       0.00000000       5.29454545       0.00000000       0.00000000      -0.10305811
2
Properties=species:S:1:pos:R:3:forces:R:3 energy=-0.24484106712693557 pbc="F F F"
Yb       0.00000000       0.00000000       0.00000000       0.00000000       0.00000000       0.11132176
Yb       0.00000000       0.00000000       5.35333333       0.00000000       0.00000000      -0.11132176
2
Properties=species:S:1:pos:R:3:forces:R:3 energy=-0.23827686524519012 pbc="F F F"
Yb       0.00000000       0.00000000       0.00000000       0.00000000       0.00000000       0.11044144
Yb       0.00000000       0.00000000       5.41212121       0.00000000       0.00000000      -0.11044144
2
Properties=species:S:1:pos:R:3:forces:R:3 energy=-0.23196486052995788 pbc="F F F"
Yb       0.00000000       0.00000000       0.00000000       0.00000000       0.00000000       0.10432041
Yb       0.00000000       0.00000000       5.47090909       0.00000000       0.00000000      -0.10432041
2
Properties=species:S:1:pos:R:3:forces:R:3 energy=-0.225866175812595 pbc="F F F"
Yb       0.00000000       0.00000000       0.00000000       0.00000000       0.00000000       0.10549947
Yb       0.00000000       0.00000000       5.52969697       0.00000000       0.00000000      -0.10549947
2
Properties=species:S:1:pos:R:3:forces:R:3 energy=-0.21921143688309763 pbc="F F F"
Yb       0.00000000       0.00000000       0.00000000       0.00000000       0.00000000       0.12392700
Yb       0.00000000       0.00000000       5.58848485       0.00000000       0.00000000      -0.12392700
2
Properties=species:S:1:pos:R:3:forces:R:3 energy=-0.21106365036893265 pbc="F F F"
Yb       0.00000000       0.00000000       0.00000000       0.00000000       0.00000000       0.15374908
Yb       0.00000000       0.00000000       5.64727273       0.00000000       0.00000000      -0.15374908
2
Properties=species:S:1:pos:R:3:forces:R:3 energy=-0.20134218712765095 pbc="F F F"
Yb       0.00000000       0.00000000       0.00000000       0.00000000       0.00000000       0.17309308
Yb       0.00000000       0.00000000       5.70606061       0.00000000       0.00000000      -0.17309308
2
Properties=species:S:1:pos:R:3:forces:R:3 energy=-0.1912752626961566 pbc="F F F"
Yb       0.00000000       0.00000000       0.00000000       0.00000000       0.00000000       0.16347027
Yb       0.00000000       0.00000000       5.76484848       0.00000000       0.00000000      -0.16347027
2
Properties=species:S:1:pos:R:3:forces:R:3 energy=-0.1826564689655144 pbc="F F F"
Yb       0.00000000       0.00000000       0.00000000       0.00000000       0.00000000       0.12658864
Yb       0.00000000       0.00000000       5.82363636       0.00000000       0.00000000      -0.12658864
2
Properties=species:S:1:pos:R:3:forces:R:3 energy=-0.17659794369267987 pbc="F F F"
Yb       0.00000000       0.00000000       0.00000000       0.00000000       0.00000000       0.08032520
Yb       0.00000000       0.00000000       5.88242424       0.00000000       0.00000000      -0.08032520
2
Properties=species:S:1:pos:R:3:forces:R:3 energy=-0.17301618586465195 pbc="F F F"
Yb       0.00000000       0.00000000       0.00000000       0.00000000       0.00000000       0.04414354
Yb       0.00000000       0.00000000       5.94121212       0.00000000       0.00000000      -0.04414354
2
Properties=species:S:1:pos:R:3:forces:R:3 energy=-0.1709597390467147 pbc="F F F"
Yb       0.00000000       0.00000000       0.00000000       0.00000000       0.00000000       0.03022114
Yb       0.00000000       0.00000000       6.00000000       0.00000000       0.00000000      -0.03022114
