2
Properties=species:S:1:pos:R:3:forces:R:3 energy=71391.79342351788 pbc="F F F"
Yb       0.00000000       0.00000000       0.00000000       0.00000000       0.00000000 -1790399.12500000
Yb       0.00000000       0.00000000       0.10000000       0.00000000       0.00000000 1790399.12500000
2
Properties=species:S:1:pos:R:3:forces:R:3 energy=19820.43209539288 pbc="F F F"
Yb       0.00000000       0.00000000       0.00000000       0.00000000       0.00000000 -371507.18750000
Yb       0.00000000       0.00000000       0.15959596       0.00000000       0.00000000  371507.18750000
2
Properties=species:S:1:pos:R:3:forces:R:3 energy=7194.114712580382 pbc="F F F"
Yb       0.00000000       0.00000000       0.00000000       0.00000000       0.00000000 -112123.71875000
Yb       0.00000000       0.00000000       0.21919192       0.00000000       0.00000000  112123.71875000
2
Properties=species:S:1:pos:R:3:forces:R:3 energy=3016.0697907053814 pbc="F F F"
Yb       0.00000000       0.00000000       0.00000000       0.00000000       0.00000000  -41388.11328125
Yb       0.00000000       0.00000000       0.27878788       0.00000000       0.00000000   41388.11328125
2
Properties=species:S:1:pos:R:3:forces:R:3 energy=1386.6623200085921 pbc="F F F"
Yb       0.00000000       0.00000000       0.00000000       0.00000000       0.00000000  -17214.39062500
Yb       0.00000000       0.00000000       0.33838384       0.00000000       0.00000000   17214.39062500
2
Properties=species:S:1:pos:R:3:forces:R:3 energy=683.3670929578109 pbc="F F F"
Yb       0.00000000       0.00000000       0.00000000       0.00000000       0.00000000   -7765.25341797
Yb       0.00000000       0.00000000       0.39797980       0.00000000       0.00000000    7765.25341797
2
Properties=species:S:1:pos:R:3:forces:R:3 energy=356.8880585339827 pbc="F F F"
Yb       0.00000000       0.00000000       0.00000000       0.00000000       0.00000000   -3731.84594727
Yb       0.00000000       0.00000000       0.45757576       0.00000000       0.00000000    3731.84594727
2
Properties=species:S:1:pos:R:3:forces:R:3 energy=196.11292732106807 pbc="F F F"
Yb       0.00000000       0.00000000       0.00000000       0.00000000       0.00000000   -1892.67028809
Yb       0.00000000       0.00000000       0.51717172       0.00000000       0.00000000    1892.67028809
2
Properties=species:S:1:pos:R:3:forces:R:3 energy=112.80338755148875 pbc="F F F"
Yb       0.00000000       0.00000000       0.00000000       0.00000000       0.00000000   -1006.04187012
Yb       0.00000000       0.00000000       0.57676768       0.00000000       0.00000000    1006.04187012
2
Properties=species:S:1:pos:R:3:forces:R:3 energy=67.689953751612 pbc="F F F"
Yb       0.00000000       0.00000000       0.00000000       0.00000000       0.00000000    -556.57580566
Yb       0.00000000       0.00000000       0.63636364       0.00000000       0.00000000     556.57580566
2
Properties=species:S:1:pos:R:3:forces:R:3 energy=42.351044665798526 pbc="F F F"
Yb       0.00000000       0.00000000       0.00000000       0.00000000       0.00000000    -317.89013672
Yb       0.00000000       0.00000000       0.69595960       0.00000000       0.00000000     317.89013672
2
Properties=species:S:1:pos:R:3:forces:R:3 energy=27.71516333688299 pbc="F F F"
Yb       0.00000000       0.00000000       0.00000000       0.00000000       0.00000000    -185.83691406
Yb       0.00000000       0.00000000       0.75555556       0.00000000       0.00000000     185.83691406
2
Properties=species:S:1:pos:R:3:forces:R:3 energy=19.085320718088454 pbc="F F F"
Yb       0.00000000       0.00000000       0.00000000       0.00000000       0.00000000    -110.71057892
Yb       0.00000000       0.00000000       0.81515152       0.00000000       0.00000000     110.71057892
2
Properties=species:S:1:pos:R:3:forces:R:3 energy=13.88855502117087 pbc="F F F"
Yb       0.00000000       0.00000000       0.00000000       0.00000000       0.00000000     -67.66665649
Yb       0.00000000       0.00000000       0.87474747       0.00000000       0.00000000      67.66665649
2
Properties=species:S:1:pos:R:3:forces:R:3 energy=10.663043761707188 pbc="F F F"
Yb       0.00000000       0.00000000       0.00000000       0.00000000       0.00000000     -42.76301193
Yb       0.00000000       0.00000000       0.93434343       0.00000000       0.00000000      42.76301193
2
Properties=species:S:1:pos:R:3:forces:R:3 energy=8.599116510401117 pbc="F F F"
Yb       0.00000000       0.00000000       0.00000000       0.00000000       0.00000000     -27.69376183
Yb       0.00000000       0.00000000       0.99393939       0.00000000       0.00000000      27.69376183
2
Properties=species:S:1:pos:R:3:forces:R:3 energy=7.250214817100854 pbc="F F F"
Yb       0.00000000       0.00000000       0.00000000       0.00000000       0.00000000     -18.33123207
Yb       0.00000000       0.00000000       1.05353535       0.00000000       0.00000000      18.33123207
2
Properties=species:S:1:pos:R:3:forces:R:3 energy=6.338682196322702 pbc="F F F"
Yb       0.00000000       0.00000000       0.00000000       0.00000000       0.00000000     -12.78934288
Yb       0.00000000       0.00000000       1.11313131       0.00000000       0.00000000      12.78934288
2
Properties=species:S:1:pos:R:3:forces:R:3 energy=5.672782439424473 pbc="F F F"
Yb       0.00000000       0.00000000       0.00000000       0.00000000       0.00000000      -9.92485046
Yb       0.00000000       0.00000000       1.17272727       0.00000000       0.00000000       9.92485046
2
Properties=species:S:1:pos:R:3:forces:R:3 energy=5.120983430203675 pbc="F F F"
Yb       0.00000000       0.00000000       0.00000000       0.00000000       0.00000000      -8.80866146
Yb       0.00000000       0.00000000       1.23232323       0.00000000       0.00000000       8.80866146
2
Properties=species:S:1:pos:R:3:forces:R:3 energy=4.60561846619014 pbc="F F F"
Yb       0.00000000       0.00000000       0.00000000       0.00000000       0.00000000      -8.56942177
Yb       0.00000000       0.00000000       1.29191919       0.00000000       0.00000000       8.56942177
2
Properties=species:S:1:pos:R:3:forces:R:3 energy=4.094849683195533 pbc="F F F"
Yb       0.00000000       0.00000000       0.00000000       0.00000000       0.00000000      -8.57968521
Yb       0.00000000       0.00000000       1.35151515       0.00000000       0.00000000       8.57968521
2
Properties=species:S:1:pos:R:3:forces:R:3 energy=3.584495082294145 pbc="F F F"
Yb       0.00000000       0.00000000       0.00000000       0.00000000       0.00000000      -8.51723194
Yb       0.00000000       0.00000000       1.41111111       0.00000000       0.00000000       8.51723194
2
Properties=species:S:1:pos:R:3:forces:R:3 energy=3.0848482485904136 pbc="F F F"
Yb       0.00000000       0.00000000       0.00000000       0.00000000       0.00000000      -8.19723892
Yb       0.00000000       0.00000000       1.47070707       0.00000000       0.00000000       8.19723892
2
Properties=species:S:1:pos:R:3:forces:R:3 energy=2.6141490390185886 pbc="F F F"
Yb       0.00000000       0.00000000       0.00000000       0.00000000       0.00000000      -7.54601431
Yb       0.00000000       0.00000000       1.53030303       0.00000000       0.00000000       7.54601431
2
Properties=species:S:1:pos:R:3:forces:R:3 energy=2.190387931014822 pbc="F F F"
Yb       0.00000000       0.00000000       0.00000000       0.00000000       0.00000000      -6.64872646
Yb       0.00000000       0.00000000       1.58989899       0.00000000       0.00000000       6.64872646
2
Properties=species:S:1:pos:R:3:forces:R:3 energy=1.8228505646301318 pbc="F F F"
Yb       0.00000000       0.00000000       0.00000000       0.00000000       0.00000000      -5.68963623
Yb       0.00000000       0.00000000       1.64949495       0.00000000       0.00000000       5.68963623
2
Properties=species:S:1:pos:R:3:forces:R:3 energy=1.5108596255274644 pbc="F F F"
Yb       0.00000000       0.00000000       0.00000000       0.00000000       0.00000000      -4.79546881
Yb       0.00000000       0.00000000       1.70909091       0.00000000       0.00000000       4.79546881
2
Properties=species:S:1:pos:R:3:forces:R:3 energy=1.2495258408985108 pbc="F F F"
Yb       0.00000000       0.00000000       0.00000000       0.00000000       0.00000000      -3.98800564
Yb       0.00000000       0.00000000       1.76868687       0.00000000       0.00000000       3.98800564
2
Properties=species:S:1:pos:R:3:forces:R:3 energy=1.0341546193760873 pbc="F F F"
Yb       0.00000000       0.00000000       0.00000000       0.00000000       0.00000000      -3.24940920
Yb       0.00000000       0.00000000       1.82828283       0.00000000       0.00000000       3.24940920
2
Properties=species:S:1:pos:R:3:forces:R:3 energy=0.861227777547452 pbc="F F F"
Yb       0.00000000       0.00000000       0.00000000       0.00000000       0.00000000      -2.56144571
Yb       0.00000000       0.00000000       1.88787879       0.00000000       0.00000000       2.56144571
2
Properties=species:S:1:pos:R:3:forces:R:3 energy=0.72794679848088 pbc="F F F"
Yb       0.00000000       0.00000000       0.00000000       0.00000000       0.00000000      -1.91980863
Yb       0.00000000       0.00000000       1.94747475       0.00000000       0.00000000       1.91980863
2
Properties=species:S:1:pos:R:3:forces:R:3 energy=0.6311511899887247 pbc="F F F"
Yb       0.00000000       0.00000000       0.00000000       0.00000000       0.00000000      -1.34175599
Yb       0.00000000       0.00000000       2.00707071       0.00000000       0.00000000       1.34175599
2
Properties=species:S:1:pos:R:3:forces:R:3 energy=0.5660735186601945 pbc="F F F"
Yb       0.00000000       0.00000000       0.00000000       0.00000000       0.00000000      -0.86172569
Yb       0.00000000       0.00000000       2.06666667       0.00000000       0.00000000       0.86172569
2
Properties=species:S:1:pos:R:3:forces:R:3 energy=0.5258066457073702 pbc="F F F"
Yb       0.00000000       0.00000000       0.00000000       0.00000000       0.00000000      -0.51344597
Yb       0.00000000       0.00000000       2.12626263       0.00000000       0.00000000       0.51344597
2
Properties=species:S:1:pos:R:3:forces:R:3 energy=0.5020009745961908 pbc="F F F"
Yb       0.00000000       0.00000000       0.00000000       0.00000000       0.00000000      -0.30881622
Yb       0.00000000       0.00000000       2.18585859       0.00000000       0.00000000       0.30881622
2
Properties=species:S:1:pos:R:3:forces:R:3 energy=0.4864463784936774 pbc="F F F"
Yb       0.00000000       0.00000000       0.00000000       0.00000000       0.00000000      -0.23219061
Yb       0.00000000       0.00000000       2.24545455       0.00000000       0.00000000       0.23219061
2
Properties=species:S:1:pos:R:3:forces:R:3 energy=0.4723779174553641 pbc="F F F"
Yb       0.00000000       0.00000000       0.00000000       0.00000000       0.00000000      -0.25374857
Yb       0.00000000       0.00000000       2.30505051       0.00000000       0.00000000       0.25374857
2
Properties=species:S:1:pos:R:3:forces:R:3 energy=0.4548255172854158 pbc="F F F"
Yb       0.00000000       0.00000000       0.00000000       0.00000000       0.00000000      -0.34479228
Yb       0.00000000       0.00000000       2.36464646       0.00000000       0.00000000       0.34479228
2
Properties=species:S:1:pos:R:3:forces:R:3 energy=0.4303456801110038 pbc="F F F"
Yb       0.00000000       0.00000000       0.00000000       0.00000000       0.00000000      -0.48307410
Yb       0.00000000       0.00000000       2.42424242       0.00000000       0.00000000       0.48307410
2
Properties=species:S:1:pos:R:3:forces:R:3 energy=0.3966597020275003 pbc="F F F"
Yb       0.00000000       0.00000000       0.00000000       0.00000000       0.00000000      -0.65099949
Yb       0.00000000       0.00000000       2.48383838       0.00000000       0.00000000       0.65099949
2
Properties=species:S:1:pos:R:3:forces:R:3 energy=0.35248368369542965 pbc="F F F"
Yb       0.00000000       0.00000000       0.00000000       0.00000000       0.00000000      -0.83238393
Yb       0.00000000       0.00000000       2.54343434       0.00000000       0.00000000       0.83238393
2
Properties=species:S:1:pos:R:3:forces:R:3 energy=0.29750612674557164 pbc="F F F"
Yb       0.00000000       0.00000000       0.00000000       0.00000000       0.00000000      -1.01077068
Yb       0.00000000       0.00000000       2.60303030       0.00000000       0.00000000       1.01077068
2
Properties=species:S:1:pos:R:3:forces:R:3 energy=0.23238772633065652 pbc="F F F"
Yb       0.00000000       0.00000000       0.00000000       0.00000000       0.00000000      -1.17012906
Yb       0.00000000       0.00000000       2.66262626       0.00000000       0.00000000       1.17012906
2
Properties=species:S:1:pos:R:3:forces:R:3 energy=0.1586864879766474 pbc="F F F"
Yb       0.00000000       0.00000000       0.00000000       0.00000000       0.00000000      -1.29684997
Yb       0.00000000       0.00000000       2.72222222       0.00000000       0.00000000       1.29684997
2
Properties=species:S:1:pos:R:3:forces:R:3 energy=0.07865664639384008 pbc="F F F"
Yb       0.00000000       0.00000000       0.00000000       0.00000000       0.00000000      -1.38127744
Yb       0.00000000       0.00000000       2.78181818       0.00000000       0.00000000       1.38127744
2
Properties=species:S:1:pos:R:3:forces:R:3 energy=-0.004996341999332188 pbc="F F F"
Yb       0.00000000       0.00000000       0.00000000       0.00000000       0.00000000      -1.41779649
Yb       0.00000000       0.00000000       2.84141414       0.00000000       0.00000000       1.41779649
2
Properties=species:S:1:pos:R:3:forces:R:3 energy=-0.08933118410596134 pbc="F F F"
Yb       0.00000000       0.00000000       0.00000000       0.00000000       0.00000000      -1.40396476
Yb       0.00000000       0.00000000       2.90101010       0.00000000       0.00000000       1.40396476
2
Properties=species:S:1:pos:R:3:forces:R:3 energy=-0.17133829891315958 pbc="F F F"
Yb       0.00000000       0.00000000       0.00000000       0.00000000       0.00000000      -1.33993757
Yb       0.00000000       0.00000000       2.96060606       0.00000000       0.00000000       1.33993757
2
Properties=species:S:1:pos:R:3:forces:R:3 energy=-0.24810486158549036 pbc="F F F"
Yb       0.00000000       0.00000000       0.00000000       0.00000000       0.00000000      -1.22892237
Yb       0.00000000       0.00000000       3.02020202       0.00000000       0.00000000       1.22892237
2
Properties=species:S:1:pos:R:3:forces:R:3 energy=-0.3170240246876205 pbc="F F F"
Yb       0.00000000       0.00000000       0.00000000       0.00000000       0.00000000      -1.07819021
Yb       0.00000000       0.00000000       3.07979798       0.00000000       0.00000000       1.07819021
2
Properties=species:S:1:pos:R:3:forces:R:3 energy=-0.3760587343237667 pbc="F F F"
Yb       0.00000000       0.00000000       0.00000000       0.00000000       0.00000000      -0.89949304
Yb       0.00000000       0.00000000       3.13939394       0.00000000       0.00000000       0.89949304
2
Properties=species:S:1:pos:R:3:forces:R:3 energy=-0.42398142540294126 pbc="F F F"
Yb       0.00000000       0.00000000       0.00000000       0.00000000       0.00000000      -0.70800096
Yb       0.00000000       0.00000000       3.19898990       0.00000000       0.00000000       0.70800096
2
Properties=species:S:1:pos:R:3:forces:R:3 energy=-0.46051520932728496 pbc="F F F"
Yb       0.00000000       0.00000000       0.00000000       0.00000000       0.00000000      -0.51990438
Yb       0.00000000       0.00000000       3.25858586       0.00000000       0.00000000       0.51990438
2
Properties=species:S:1:pos:R:3:forces:R:3 energy=-0.486303046887382 pbc="F F F"
Yb       0.00000000       0.00000000       0.00000000       0.00000000       0.00000000      -0.34943393
Yb       0.00000000       0.00000000       3.31818182       0.00000000       0.00000000       0.34943393
2
Properties=species:S:1:pos:R:3:forces:R:3 energy=-0.5027140484218744 pbc="F F F"
Yb       0.00000000       0.00000000       0.00000000       0.00000000       0.00000000      -0.20641941
Yb       0.00000000       0.00000000       3.37777778       0.00000000       0.00000000       0.20641941
2
Properties=species:S:1:pos:R:3:forces:R:3 energy=-0.5115403841987792 pbc="F F F"
Yb       0.00000000       0.00000000       0.00000000       0.00000000       0.00000000      -0.09515797
Yb       0.00000000       0.00000000       3.43737374       0.00000000       0.00000000       0.09515797
2
Properties=species:S:1:pos:R:3:forces:R:3 energy=-0.5146725069176509 pbc="F F F"
Yb       0.00000000       0.00000000       0.00000000       0.00000000       0.00000000      -0.01478865
Yb       0.00000000       0.00000000       3.49696970       0.00000000       0.00000000       0.01478865
2
Properties=species:S:1:pos:R:3:forces:R:3 energy=-0.5138245892490676 pbc="F F F"
Yb       0.00000000       0.00000000       0.00000000       0.00000000       0.00000000       0.03941794
Yb       0.00000000       0.00000000       3.55656566       0.00000000       0.00000000      -0.03941794
2
Properties=species:S:1:pos:R:3:forces:R:3 energy=-0.510355164539012 pbc="F F F"
Yb       0.00000000       0.00000000       0.00000000       0.00000000       0.00000000       0.07445377
Yb       0.00000000       0.00000000       3.61616162       0.00000000       0.00000000      -0.07445377
2
Properties=species:S:1:pos:R:3:forces:R:3 energy=-0.5051783583617663 pbc="F F F"
Yb       0.00000000       0.00000000       0.00000000       0.00000000       0.00000000       0.09797492
Yb       0.00000000       0.00000000       3.67575758       0.00000000       0.00000000      -0.09797492
2
Properties=species:S:1:pos:R:3:forces:R:3 energy=-0.49876951223935356 pbc="F F F"
Yb       0.00000000       0.00000000       0.00000000       0.00000000       0.00000000       0.11680067
Yb       0.00000000       0.00000000       3.73535354       0.00000000       0.00000000      -0.11680067
2
Properties=species:S:1:pos:R:3:forces:R:3 energy=-0.4912528799129833 pbc="F F F"
Yb       0.00000000       0.00000000       0.00000000       0.00000000       0.00000000       0.13572040
Yb       0.00000000       0.00000000       3.79494949       0.00000000       0.00000000      -0.13572040
2
Properties=species:S:1:pos:R:3:forces:R:3 energy=-0.4825463016551614 pbc="F F F"
Yb       0.00000000       0.00000000       0.00000000       0.00000000       0.00000000       0.15688564
Yb       0.00000000       0.00000000       3.85454545       0.00000000       0.00000000      -0.15688564
2
Properties=species:S:1:pos:R:3:forces:R:3 energy=-0.47251484674493566 pbc="F F F"
Yb       0.00000000       0.00000000       0.00000000       0.00000000       0.00000000       0.17994718
Yb       0.00000000       0.00000000       3.91414141       0.00000000       0.00000000      -0.17994718
2
Properties=species:S:1:pos:R:3:forces:R:3 energy=-0.46110086188330524 pbc="F F F"
Yb       0.00000000       0.00000000       0.00000000       0.00000000       0.00000000       0.20283163
Yb       0.00000000       0.00000000       3.97373737       0.00000000       0.00000000      -0.20283163
2
Properties=species:S:1:pos:R:3:forces:R:3 energy=-0.44839600457438367 pbc="F F F"
Yb       0.00000000       0.00000000       0.00000000       0.00000000       0.00000000       0.22284032
Yb       0.00000000       0.00000000       4.03333333       0.00000000       0.00000000      -0.22284032
2
Properties=species:S:1:pos:R:3:forces:R:3 energy=-0.4346441257391271 pbc="F F F"
Yb       0.00000000       0.00000000       0.00000000       0.00000000       0.00000000       0.23764564
Yb       0.00000000       0.00000000       4.09292929       0.00000000       0.00000000      -0.23764564
2
Properties=species:S:1:pos:R:3:forces:R:3 energy=-0.4202018215279355 pbc="F F F"
Yb       0.00000000       0.00000000       0.00000000       0.00000000       0.00000000       0.24588442
Yb       0.00000000       0.00000000       4.15252525       0.00000000       0.00000000      -0.24588442
2
Properties=species:S:1:pos:R:3:forces:R:3 energy=-0.4054734959360691 pbc="F F F"
Yb       0.00000000       0.00000000       0.00000000       0.00000000       0.00000000       0.24728170
Yb       0.00000000       0.00000000       4.21212121       0.00000000       0.00000000      -0.24728170
2
Properties=species:S:1:pos:R:3:forces:R:3 energy=-0.3908522158649969 pbc="F F F"
Yb       0.00000000       0.00000000       0.00000000       0.00000000       0.00000000       0.24243650
Yb       0.00000000       0.00000000       4.27171717       0.00000000       0.00000000      -0.24243650
2
Properties=species:S:1:pos:R:3:forces:R:3 energy=-0.3766791766721571 pbc="F F F"
Yb       0.00000000       0.00000000       0.00000000       0.00000000       0.00000000       0.23244856
Yb       0.00000000       0.00000000       4.33131313       0.00000000       0.00000000      -0.23244856
2
Properties=species:S:1:pos:R:3:forces:R:3 energy=-0.3632235267066469 pbc="F F F"
Yb       0.00000000       0.00000000       0.00000000       0.00000000       0.00000000       0.21856979
Yb       0.00000000       0.00000000       4.39090909       0.00000000       0.00000000      -0.21856979
2
Properties=species:S:1:pos:R:3:forces:R:3 energy=-0.350680652613765 pbc="F F F"
Yb       0.00000000       0.00000000       0.00000000       0.00000000       0.00000000       0.20199937
Yb       0.00000000       0.00000000       4.45050505       0.00000000       0.00000000      -0.20199937
2
Properties=species:S:1:pos:R:3:forces:R:3 energy=-0.3391782392938988 pbc="F F F"
Yb       0.00000000       0.00000000       0.00000000       0.00000000       0.00000000       0.18384486
Yb       0.00000000       0.00000000       4.51010101       0.00000000       0.00000000      -0.18384486
2
Properties=species:S:1:pos:R:3:forces:R:3 energy=-0.32877773315414094 pbc="F F F"
Yb       0.00000000       0.00000000       0.00000000       0.00000000       0.00000000       0.16519226
Yb       0.00000000       0.00000000       4.56969697       0.00000000       0.00000000      -0.16519226
2
Properties=species:S:1:pos:R:3:forces:R:3 energy=-0.31947558124057257 pbc="F F F"
Yb       0.00000000       0.00000000       0.00000000       0.00000000       0.00000000       0.14719149
Yb       0.00000000       0.00000000       4.62929293       0.00000000       0.00000000      -0.14719149
2
Properties=species:S:1:pos:R:3:forces:R:3 energy=-0.3111973273345794 pbc="F F F"
Yb       0.00000000       0.00000000       0.00000000       0.00000000       0.00000000       0.13102776
Yb       0.00000000       0.00000000       4.68888889       0.00000000       0.00000000      -0.13102776
2
Properties=species:S:1:pos:R:3:forces:R:3 energy=-0.3038005758680352 pbc="F F F"
Yb       0.00000000       0.00000000       0.00000000       0.00000000       0.00000000       0.11774868
Yb       0.00000000       0.00000000       4.74848485       0.00000000       0.00000000      -0.11774868
2
Properties=species:S:1:pos:R:3:forces:R:3 energy=-0.2970924061070138 pbc="F F F"
Yb       0.00000000       0.00000000       0.00000000       0.00000000       0.00000000       0.10798350
Yb       0.00000000       0.00000000       4.80808081       0.00000000       0.00000000      -0.10798350
2
Properties=species:S:1:pos:R:3:forces:R:3 energy=-0.29086098055853216 pbc="F F F"
Yb       0.00000000       0.00000000       0.00000000       0.00000000       0.00000000       0.10165567
Yb       0.00000000       0.00000000       4.86767677       0.00000000       0.00000000      -0.10165567
2
Properties=species:S:1:pos:R:3:forces:R:3 energy=-0.2849250257452046 pbc="F F F"
Yb       0.00000000       0.00000000       0.00000000       0.00000000       0.00000000       0.09785169
Yb       0.00000000       0.00000000       4.92727273       0.00000000       0.00000000      -0.09785169
2
Properties=species:S:1:pos:R:3:forces:R:3 energy=-0.27917848089789815 pbc="F F F"
Yb       0.00000000       0.00000000       0.00000000       0.00000000       0.00000000       0.09501576
Yb       0.00000000       0.00000000       4.98686869       0.00000000       0.00000000      -0.09501576
2
Properties=species:S:1:pos:R:3:forces:R:3 energy=-0.27361096733749407 pbc="F F F"
Yb       0.00000000       0.00000000       0.00000000       0.00000000       0.00000000       0.09169157
Yb       0.00000000       0.00000000       5.04646465       0.00000000       0.00000000      -0.09169157
2
Properties=species:S:1:pos:R:3:forces:R:3 energy=-0.268261783316559 pbc="F F F"
Yb       0.00000000       0.00000000       0.00000000       0.00000000       0.00000000       0.08786887
Yb       0.00000000       0.00000000       5.10606061       0.00000000       0.00000000      -0.08786887
2
Properties=species:S:1:pos:R:3:forces:R:3 energy=-0.2630958898662716 pbc="F F F"
Yb       0.00000000       0.00000000       0.00000000       0.00000000       0.00000000       0.08618385
Yb       0.00000000       0.00000000       5.16565657       0.00000000       0.00000000      -0.08618385
2
Properties=species:S:1:pos:R:3:forces:R:3 energy=-0.25786503080614404 pbc="F F F"
Yb       0.00000000       0.00000000       0.00000000       0.00000000       0.00000000       0.09060723
Yb       0.00000000       0.00000000       5.22525253       0.00000000       0.00000000      -0.09060723
2
Properties=species:S:1:pos:R:3:forces:R:3 energy=-0.2521683532516047 pbc="F F F"
Yb       0.00000000       0.00000000       0.00000000       0.00000000       0.00000000       0.10118382
Yb       0.00000000       0.00000000       5.28484848       0.00000000       0.00000000      -0.10118382
2
Properties=species:S:1:pos:R:3:forces:R:3 energy=-0.24582710846158018 pbc="F F F"
Yb       0.00000000       0.00000000       0.00000000       0.00000000       0.00000000       0.11059500
Yb       0.00000000       0.00000000       5.34444444       0.00000000       0.00000000      -0.11059500
2
Properties=species:S:1:pos:R:3:forces:R:3 energy=-0.2391709995955881 pbc="F F F"
Yb       0.00000000       0.00000000       0.00000000       0.00000000       0.00000000       0.11108536
Yb       0.00000000       0.00000000       5.40404040       0.00000000       0.00000000      -0.11108536
2
Properties=species:S:1:pos:R:3:forces:R:3 energy=-0.23272424065187997 pbc="F F F"
Yb       0.00000000       0.00000000       0.00000000       0.00000000       0.00000000       0.10497151
Yb       0.00000000       0.00000000       5.46363636       0.00000000       0.00000000      -0.10497151
2
Properties=species:S:1:pos:R:3:forces:R:3 energy=-0.22654616366152688 pbc="F F F"
Yb       0.00000000       0.00000000       0.00000000       0.00000000       0.00000000       0.10460557
Yb       0.00000000       0.00000000       5.52323232       0.00000000       0.00000000      -0.10460557
2
Properties=species:S:1:pos:R:3:forces:R:3 energy=-0.2199055221323065 pbc="F F F"
Yb       0.00000000       0.00000000       0.00000000       0.00000000       0.00000000       0.12140502
Yb       0.00000000       0.00000000       5.58282828       0.00000000       0.00000000      -0.12140502
2
Properties=species:S:1:pos:R:3:forces:R:3 energy=-0.2118004539372686 pbc="F F F"
Yb       0.00000000       0.00000000       0.00000000       0.00000000       0.00000000       0.15136722
Yb       0.00000000       0.00000000       5.64242424       0.00000000       0.00000000      -0.15136722
2
Properties=species:S:1:pos:R:3:forces:R:3 energy=-0.20203165050263008 pbc="F F F"
Yb       0.00000000       0.00000000       0.00000000       0.00000000       0.00000000       0.17264645
Yb       0.00000000       0.00000000       5.70202020       0.00000000       0.00000000      -0.17264645
2
Properties=species:S:1:pos:R:3:forces:R:3 energy=-0.19182405238368602 pbc="F F F"
Yb       0.00000000       0.00000000       0.00000000       0.00000000       0.00000000       0.16475989
Yb       0.00000000       0.00000000       5.76161616       0.00000000       0.00000000      -0.16475989
2
Properties=species:S:1:pos:R:3:forces:R:3 energy=-0.1829752467346293 pbc="F F F"
Yb       0.00000000       0.00000000       0.00000000       0.00000000       0.00000000       0.12840854
Yb       0.00000000       0.00000000       5.82121212       0.00000000       0.00000000      -0.12840854
2
Properties=species:S:1:pos:R:3:forces:R:3 energy=-0.1767387821462535 pbc="F F F"
Yb       0.00000000       0.00000000       0.00000000       0.00000000       0.00000000       0.08149070
Yb       0.00000000       0.00000000       5.88080808       0.00000000       0.00000000      -0.08149070
2
Properties=species:S:1:pos:R:3:forces:R:3 energy=-0.1730490125944925 pbc="F F F"
Yb       0.00000000       0.00000000       0.00000000       0.00000000       0.00000000       0.04456014
Yb       0.00000000       0.00000000       5.94040404       0.00000000       0.00000000      -0.04456014
2
Properties=species:S:1:pos:R:3:forces:R:3 energy=-0.1709597390467147 pbc="F F F"
Yb       0.00000000       0.00000000       0.00000000       0.00000000       0.00000000       0.03022114
Yb       0.00000000       0.00000000       6.00000000       0.00000000       0.00000000      -0.03022114
