2
Properties=species:S:1:pos:R:3:forces:R:3 energy=4194.130523766455 pbc="F F F"
Zn       0.00000000       0.00000000       0.00000000       0.00000000       0.00000000  -65856.78906250
Zn       0.00000000       0.00000000       0.18000000       0.00000000       0.00000000   65856.78906250
2
Properties=species:S:1:pos:R:3:forces:R:3 energy=1807.915557946142 pbc="F F F"
Zn       0.00000000       0.00000000       0.00000000       0.00000000       0.00000000  -23743.44726562
Zn       0.00000000       0.00000000       0.23878788       0.00000000       0.00000000   23743.44726562
2
Properties=species:S:1:pos:R:3:forces:R:3 energy=880.3344422266536 pbc="F F F"
Zn       0.00000000       0.00000000       0.00000000       0.00000000       0.00000000  -10076.60742188
Zn       0.00000000       0.00000000       0.29757576       0.00000000       0.00000000   10076.60742188
2
Properties=species:S:1:pos:R:3:forces:R:3 energy=467.1201783138057 pbc="F F F"
Zn       0.00000000       0.00000000       0.00000000       0.00000000       0.00000000   -4741.50634766
Zn       0.00000000       0.00000000       0.35636364       0.00000000       0.00000000    4741.50634766
2
Properties=species:S:1:pos:R:3:forces:R:3 energy=266.331024267407 pbc="F F F"
Zn       0.00000000       0.00000000       0.00000000       0.00000000       0.00000000   -2387.87622070
Zn       0.00000000       0.00000000       0.41515152       0.00000000       0.00000000    2387.87622070
2
Properties=species:S:1:pos:R:3:forces:R:3 energy=162.96334850833173 pbc="F F F"
Zn       0.00000000       0.00000000       0.00000000       0.00000000       0.00000000   -1259.40539551
Zn       0.00000000       0.00000000       0.47393939       0.00000000       0.00000000    1259.40539551
2
Properties=species:S:1:pos:R:3:forces:R:3 energy=107.5967332445998 pbc="F F F"
Zn       0.00000000       0.00000000       0.00000000       0.00000000       0.00000000    -686.26440430
Zn       0.00000000       0.00000000       0.53272727       0.00000000       0.00000000     686.26440430
2
Properties=species:S:1:pos:R:3:forces:R:3 energy=77.06299611266778 pbc="F F F"
Zn       0.00000000       0.00000000       0.00000000       0.00000000       0.00000000    -383.61883545
Zn       0.00000000       0.00000000       0.59151515       0.00000000       0.00000000     383.61883545
2
Properties=species:S:1:pos:R:3:forces:R:3 energy=59.847881614196574 pbc="F F F"
Zn       0.00000000       0.00000000       0.00000000       0.00000000       0.00000000    -218.14720154
Zn       0.00000000       0.00000000       0.65030303       0.00000000       0.00000000     218.14720154
2
Properties=species:S:1:pos:R:3:forces:R:3 energy=49.98881193569765 pbc="F F F"
Zn       0.00000000       0.00000000       0.00000000       0.00000000       0.00000000    -126.47303009
Zn       0.00000000       0.00000000       0.70909091       0.00000000       0.00000000     126.47303009
2
Properties=species:S:1:pos:R:3:forces:R:3 energy=44.11980886154676 pbc="F F F"
Zn       0.00000000       0.00000000       0.00000000       0.00000000       0.00000000     -78.97668457
Zn       0.00000000       0.00000000       0.76787879       0.00000000       0.00000000      78.97668457
2
Properties=species:S:1:pos:R:3:forces:R:3 energy=40.162323995193475 pbc="F F F"
Zn       0.00000000       0.00000000       0.00000000       0.00000000       0.00000000     -59.17966080
Zn       0.00000000       0.00000000       0.82666667       0.00000000       0.00000000      59.17966080
2
Properties=species:S:1:pos:R:3:forces:R:3 energy=36.85848764468921 pbc="F F F"
Zn       0.00000000       0.00000000       0.00000000       0.00000000       0.00000000     -54.96756744
Zn       0.00000000       0.00000000       0.88545455       0.00000000       0.00000000      54.96756744
2
Properties=species:S:1:pos:R:3:forces:R:3 energy=33.57433531897708 pbc="F F F"
Zn       0.00000000       0.00000000       0.00000000       0.00000000       0.00000000     -57.21575546
Zn       0.00000000       0.00000000       0.94424242       0.00000000       0.00000000      57.21575546
2
Properties=species:S:1:pos:R:3:forces:R:3 energy=30.134810627061807 pbc="F F F"
Zn       0.00000000       0.00000000       0.00000000       0.00000000       0.00000000     -59.39558792
Zn       0.00000000       0.00000000       1.00303030       0.00000000       0.00000000      59.39558792
2
Properties=species:S:1:pos:R:3:forces:R:3 energy=26.657610391216988 pbc="F F F"
Zn       0.00000000       0.00000000       0.00000000       0.00000000       0.00000000     -58.30953217
Zn       0.00000000       0.00000000       1.06181818       0.00000000       0.00000000      58.30953217
2
Properties=species:S:1:pos:R:3:forces:R:3 energy=23.33698862165042 pbc="F F F"
Zn       0.00000000       0.00000000       0.00000000       0.00000000       0.00000000     -54.27189255
Zn       0.00000000       0.00000000       1.12060606       0.00000000       0.00000000      54.27189255
2
Properties=species:S:1:pos:R:3:forces:R:3 energy=20.312765518609375 pbc="F F F"
Zn       0.00000000       0.00000000       0.00000000       0.00000000       0.00000000     -48.38811493
Zn       0.00000000       0.00000000       1.17939394       0.00000000       0.00000000      48.38811493
2
Properties=species:S:1:pos:R:3:forces:R:3 energy=17.66101580902646 pbc="F F F"
Zn       0.00000000       0.00000000       0.00000000       0.00000000       0.00000000     -41.84405136
Zn       0.00000000       0.00000000       1.23818182       0.00000000       0.00000000      41.84405136
2
Properties=species:S:1:pos:R:3:forces:R:3 energy=15.375308046360363 pbc="F F F"
Zn       0.00000000       0.00000000       0.00000000       0.00000000       0.00000000     -36.18074799
Zn       0.00000000       0.00000000       1.29696970       0.00000000       0.00000000      36.18074799
2
Properties=species:S:1:pos:R:3:forces:R:3 energy=13.369167986201164 pbc="F F F"
Zn       0.00000000       0.00000000       0.00000000       0.00000000       0.00000000     -32.39951706
Zn       0.00000000       0.00000000       1.35575758       0.00000000       0.00000000      32.39951706
2
Properties=species:S:1:pos:R:3:forces:R:3 energy=11.534280347615898 pbc="F F F"
Zn       0.00000000       0.00000000       0.00000000       0.00000000       0.00000000     -30.20376396
Zn       0.00000000       0.00000000       1.41454545       0.00000000       0.00000000      30.20376396
2
Properties=species:S:1:pos:R:3:forces:R:3 energy=9.808658419630875 pbc="F F F"
Zn       0.00000000       0.00000000       0.00000000       0.00000000       0.00000000     -28.49446297
Zn       0.00000000       0.00000000       1.47333333       0.00000000       0.00000000      28.49446297
2
Properties=species:S:1:pos:R:3:forces:R:3 energy=8.191156120136613 pbc="F F F"
Zn       0.00000000       0.00000000       0.00000000       0.00000000       0.00000000     -26.44475174
Zn       0.00000000       0.00000000       1.53212121       0.00000000       0.00000000      26.44475174
2
Properties=species:S:1:pos:R:3:forces:R:3 energy=6.710039661958496 pbc="F F F"
Zn       0.00000000       0.00000000       0.00000000       0.00000000       0.00000000     -23.86281776
Zn       0.00000000       0.00000000       1.59090909       0.00000000       0.00000000      23.86281776
2
Properties=species:S:1:pos:R:3:forces:R:3 energy=5.3928174686428525 pbc="F F F"
Zn       0.00000000       0.00000000       0.00000000       0.00000000       0.00000000     -20.90910912
Zn       0.00000000       0.00000000       1.64969697       0.00000000       0.00000000      20.90910912
2
Properties=species:S:1:pos:R:3:forces:R:3 energy=4.253698435200129 pbc="F F F"
Zn       0.00000000       0.00000000       0.00000000       0.00000000       0.00000000     -17.84910583
Zn       0.00000000       0.00000000       1.70848485       0.00000000       0.00000000      17.84910583
2
Properties=species:S:1:pos:R:3:forces:R:3 energy=3.2916134206936434 pbc="F F F"
Zn       0.00000000       0.00000000       0.00000000       0.00000000       0.00000000     -14.91665268
Zn       0.00000000       0.00000000       1.76727273       0.00000000       0.00000000      14.91665268
2
Properties=species:S:1:pos:R:3:forces:R:3 energy=2.494826556662882 pbc="F F F"
Zn       0.00000000       0.00000000       0.00000000       0.00000000       0.00000000     -12.23831081
Zn       0.00000000       0.00000000       1.82606061       0.00000000       0.00000000      12.23831081
2
Properties=species:S:1:pos:R:3:forces:R:3 energy=1.8467353934414588 pbc="F F F"
Zn       0.00000000       0.00000000       0.00000000       0.00000000       0.00000000      -9.86300850
Zn       0.00000000       0.00000000       1.88484848       0.00000000       0.00000000       9.86300850
2
Properties=species:S:1:pos:R:3:forces:R:3 energy=1.3287855896212375 pbc="F F F"
Zn       0.00000000       0.00000000       0.00000000       0.00000000       0.00000000      -7.81331778
Zn       0.00000000       0.00000000       1.94363636       0.00000000       0.00000000       7.81331778
2
Properties=species:S:1:pos:R:3:forces:R:3 energy=0.9215342373961026 pbc="F F F"
Zn       0.00000000       0.00000000       0.00000000       0.00000000       0.00000000      -6.09682655
Zn       0.00000000       0.00000000       2.00242424       0.00000000       0.00000000       6.09682655
2
Properties=species:S:1:pos:R:3:forces:R:3 energy=0.6056519695116804 pbc="F F F"
Zn       0.00000000       0.00000000       0.00000000       0.00000000       0.00000000      -4.70105886
Zn       0.00000000       0.00000000       2.06121212       0.00000000       0.00000000       4.70105886
2
Properties=species:S:1:pos:R:3:forces:R:3 energy=0.36310744028880704 pbc="F F F"
Zn       0.00000000       0.00000000       0.00000000       0.00000000       0.00000000      -3.59564734
Zn       0.00000000       0.00000000       2.12000000       0.00000000       0.00000000       3.59564734
2
Properties=species:S:1:pos:R:3:forces:R:3 energy=0.17798064038419423 pbc="F F F"
Zn       0.00000000       0.00000000       0.00000000       0.00000000       0.00000000      -2.74074244
Zn       0.00000000       0.00000000       2.17878788       0.00000000       0.00000000       2.74074244
2
Properties=species:S:1:pos:R:3:forces:R:3 energy=0.03678387587699355 pbc="F F F"
Zn       0.00000000       0.00000000       0.00000000       0.00000000       0.00000000      -2.09401679
Zn       0.00000000       0.00000000       2.23757576       0.00000000       0.00000000       2.09401679
2
Properties=species:S:1:pos:R:3:forces:R:3 energy=-0.07149158125074631 pbc="F F F"
Zn       0.00000000       0.00000000       0.00000000       0.00000000       0.00000000      -1.61405396
Zn       0.00000000       0.00000000       2.29636364       0.00000000       0.00000000       1.61405396
2
Properties=species:S:1:pos:R:3:forces:R:3 energy=-0.15549446709263431 pbc="F F F"
Zn       0.00000000       0.00000000       0.00000000       0.00000000       0.00000000      -1.26209211
Zn       0.00000000       0.00000000       2.35515152       0.00000000       0.00000000       1.26209211
2
Properties=species:S:1:pos:R:3:forces:R:3 energy=-0.22171518128311152 pbc="F F F"
Zn       0.00000000       0.00000000       0.00000000       0.00000000       0.00000000      -1.00381684
Zn       0.00000000       0.00000000       2.41393939       0.00000000       0.00000000       1.00381684
2
Properties=species:S:1:pos:R:3:forces:R:3 energy=-0.2747842356177039 pbc="F F F"
Zn       0.00000000       0.00000000       0.00000000       0.00000000       0.00000000      -0.81022859
Zn       0.00000000       0.00000000       2.47272727       0.00000000       0.00000000       0.81022859
2
Properties=species:S:1:pos:R:3:forces:R:3 energy=-0.3177489846399021 pbc="F F F"
Zn       0.00000000       0.00000000       0.00000000       0.00000000       0.00000000      -0.65599531
Zn       0.00000000       0.00000000       2.53151515       0.00000000       0.00000000       0.65599531
2
Properties=species:S:1:pos:R:3:forces:R:3 energy=-0.3522313698346385 pbc="F F F"
Zn       0.00000000       0.00000000       0.00000000       0.00000000       0.00000000      -0.51833284
Zn       0.00000000       0.00000000       2.59030303       0.00000000       0.00000000       0.51833284
2
Properties=species:S:1:pos:R:3:forces:R:3 energy=-0.37877163105152795 pbc="F F F"
Zn       0.00000000       0.00000000       0.00000000       0.00000000       0.00000000      -0.38553745
Zn       0.00000000       0.00000000       2.64909091       0.00000000       0.00000000       0.38553745
2
Properties=species:S:1:pos:R:3:forces:R:3 energy=-0.397809058218283 pbc="F F F"
Zn       0.00000000       0.00000000       0.00000000       0.00000000       0.00000000      -0.26547647
Zn       0.00000000       0.00000000       2.70787879       0.00000000       0.00000000       0.26547647
2
Properties=species:S:1:pos:R:3:forces:R:3 energy=-0.4104664610024818 pbc="F F F"
Zn       0.00000000       0.00000000       0.00000000       0.00000000       0.00000000      -0.16946159
Zn       0.00000000       0.00000000       2.76666667       0.00000000       0.00000000       0.16946159
2
Properties=species:S:1:pos:R:3:forces:R:3 energy=-0.41820483201712905 pbc="F F F"
Zn       0.00000000       0.00000000       0.00000000       0.00000000       0.00000000      -0.09731575
Zn       0.00000000       0.00000000       2.82545455       0.00000000       0.00000000       0.09731575
2
Properties=species:S:1:pos:R:3:forces:R:3 energy=-0.4222564071653876 pbc="F F F"
Zn       0.00000000       0.00000000       0.00000000       0.00000000       0.00000000      -0.04298454
Zn       0.00000000       0.00000000       2.88424242       0.00000000       0.00000000       0.04298454
2
Properties=species:S:1:pos:R:3:forces:R:3 energy=-0.4235011589923287 pbc="F F F"
Zn       0.00000000       0.00000000       0.00000000       0.00000000       0.00000000      -0.00107989
Zn       0.00000000       0.00000000       2.94303030       0.00000000       0.00000000       0.00107989
2
Properties=species:S:1:pos:R:3:forces:R:3 energy=-0.42255541427162285 pbc="F F F"
Zn       0.00000000       0.00000000       0.00000000       0.00000000       0.00000000       0.03200562
Zn       0.00000000       0.00000000       3.00181818       0.00000000       0.00000000      -0.03200562
2
Properties=species:S:1:pos:R:3:forces:R:3 energy=-0.4198671613112526 pbc="F F F"
Zn       0.00000000       0.00000000       0.00000000       0.00000000       0.00000000       0.05845916
Zn       0.00000000       0.00000000       3.06060606       0.00000000       0.00000000      -0.05845916
2
Properties=species:S:1:pos:R:3:forces:R:3 energy=-0.41579056204319614 pbc="F F F"
Zn       0.00000000       0.00000000       0.00000000       0.00000000       0.00000000       0.07934362
Zn       0.00000000       0.00000000       3.11939394       0.00000000       0.00000000      -0.07934362
2
Properties=species:S:1:pos:R:3:forces:R:3 energy=-0.41064196148379933 pbc="F F F"
Zn       0.00000000       0.00000000       0.00000000       0.00000000       0.00000000       0.09492335
Zn       0.00000000       0.00000000       3.17818182       0.00000000       0.00000000      -0.09492335
2
Properties=species:S:1:pos:R:3:forces:R:3 energy=-0.4047358084680777 pbc="F F F"
Zn       0.00000000       0.00000000       0.00000000       0.00000000       0.00000000       0.10509851
Zn       0.00000000       0.00000000       3.23696970       0.00000000       0.00000000      -0.10509851
2
Properties=species:S:1:pos:R:3:forces:R:3 energy=-0.3983919092054854 pbc="F F F"
Zn       0.00000000       0.00000000       0.00000000       0.00000000       0.00000000       0.10983290
Zn       0.00000000       0.00000000       3.29575758       0.00000000       0.00000000      -0.10983290
2
Properties=species:S:1:pos:R:3:forces:R:3 energy=-0.39192291005657004 pbc="F F F"
Zn       0.00000000       0.00000000       0.00000000       0.00000000       0.00000000       0.10944564
Zn       0.00000000       0.00000000       3.35454545       0.00000000       0.00000000      -0.10944564
2
Properties=species:S:1:pos:R:3:forces:R:3 energy=-0.38560923307189787 pbc="F F F"
Zn       0.00000000       0.00000000       0.00000000       0.00000000       0.00000000       0.10470212
Zn       0.00000000       0.00000000       3.41333333       0.00000000       0.00000000      -0.10470212
2
Properties=species:S:1:pos:R:3:forces:R:3 energy=-0.37967591887961155 pbc="F F F"
Zn       0.00000000       0.00000000       0.00000000       0.00000000       0.00000000       0.09671672
Zn       0.00000000       0.00000000       3.47212121       0.00000000       0.00000000      -0.09671672
2
Properties=species:S:1:pos:R:3:forces:R:3 energy=-0.3742767819373623 pbc="F F F"
Zn       0.00000000       0.00000000       0.00000000       0.00000000       0.00000000       0.08674039
Zn       0.00000000       0.00000000       3.53090909       0.00000000       0.00000000      -0.08674039
2
Properties=species:S:1:pos:R:3:forces:R:3 energy=-0.36949343526721434 pbc="F F F"
Zn       0.00000000       0.00000000       0.00000000       0.00000000       0.00000000       0.07593395
Zn       0.00000000       0.00000000       3.58969697       0.00000000       0.00000000      -0.07593395
2
Properties=species:S:1:pos:R:3:forces:R:3 energy=-0.3653468606763521 pbc="F F F"
Zn       0.00000000       0.00000000       0.00000000       0.00000000       0.00000000       0.06520988
Zn       0.00000000       0.00000000       3.64848485       0.00000000       0.00000000      -0.06520988
2
Properties=species:S:1:pos:R:3:forces:R:3 energy=-0.361812838732509 pbc="F F F"
Zn       0.00000000       0.00000000       0.00000000       0.00000000       0.00000000       0.05517026
Zn       0.00000000       0.00000000       3.70727273       0.00000000       0.00000000      -0.05517026
2
Properties=species:S:1:pos:R:3:forces:R:3 energy=-0.35884038689805975 pbc="F F F"
Zn       0.00000000       0.00000000       0.00000000       0.00000000       0.00000000       0.04613367
Zn       0.00000000       0.00000000       3.76606061       0.00000000       0.00000000      -0.04613367
2
Properties=species:S:1:pos:R:3:forces:R:3 energy=-0.35636673742689223 pbc="F F F"
Zn       0.00000000       0.00000000       0.00000000       0.00000000       0.00000000       0.03820792
Zn       0.00000000       0.00000000       3.82484848       0.00000000       0.00000000      -0.03820792
2
Properties=species:S:1:pos:R:3:forces:R:3 energy=-0.35432672005223853 pbc="F F F"
Zn       0.00000000       0.00000000       0.00000000       0.00000000       0.00000000       0.03137011
Zn       0.00000000       0.00000000       3.88363636       0.00000000       0.00000000      -0.03137011
2
Properties=species:S:1:pos:R:3:forces:R:3 energy=-0.3526587263269218 pbc="F F F"
Zn       0.00000000       0.00000000       0.00000000       0.00000000       0.00000000       0.02553451
Zn       0.00000000       0.00000000       3.94242424       0.00000000       0.00000000      -0.02553451
2
Properties=species:S:1:pos:R:3:forces:R:3 energy=-0.3513068966962268 pbc="F F F"
Zn       0.00000000       0.00000000       0.00000000       0.00000000       0.00000000       0.02059453
Zn       0.00000000       0.00000000       4.00121212       0.00000000       0.00000000      -0.02059453
2
Properties=species:S:1:pos:R:3:forces:R:3 energy=-0.35022177427309353 pbc="F F F"
Zn       0.00000000       0.00000000       0.00000000       0.00000000       0.00000000       0.01644400
Zn       0.00000000       0.00000000       4.06000000       0.00000000       0.00000000      -0.01644400
2
Properties=species:S:1:pos:R:3:forces:R:3 energy=-0.3493600152743788 pbc="F F F"
Zn       0.00000000       0.00000000       0.00000000       0.00000000       0.00000000       0.01298294
Zn       0.00000000       0.00000000       4.11878788       0.00000000       0.00000000      -0.01298294
2
Properties=species:S:1:pos:R:3:forces:R:3 energy=-0.3486836718892195 pbc="F F F"
Zn       0.00000000       0.00000000       0.00000000       0.00000000       0.00000000       0.01011797
Zn       0.00000000       0.00000000       4.17757576       0.00000000       0.00000000      -0.01011797
2
Properties=species:S:1:pos:R:3:forces:R:3 energy=-0.34816042894568394 pbc="F F F"
Zn       0.00000000       0.00000000       0.00000000       0.00000000       0.00000000       0.00776249
Zn       0.00000000       0.00000000       4.23636364       0.00000000       0.00000000      -0.00776249
2
Properties=species:S:1:pos:R:3:forces:R:3 energy=-0.3477625875879593 pbc="F F F"
Zn       0.00000000       0.00000000       0.00000000       0.00000000       0.00000000       0.00583992
Zn       0.00000000       0.00000000       4.29515152       0.00000000       0.00000000      -0.00583992
2
Properties=species:S:1:pos:R:3:forces:R:3 energy=-0.34746649340452906 pbc="F F F"
Zn       0.00000000       0.00000000       0.00000000       0.00000000       0.00000000       0.00429150
Zn       0.00000000       0.00000000       4.35393939       0.00000000       0.00000000      -0.00429150
2
Properties=species:S:1:pos:R:3:forces:R:3 energy=-0.34725128931434884 pbc="F F F"
Zn       0.00000000       0.00000000       0.00000000       0.00000000       0.00000000       0.00308474
Zn       0.00000000       0.00000000       4.41272727       0.00000000       0.00000000      -0.00308474
2
Properties=species:S:1:pos:R:3:forces:R:3 energy=-0.347097164857393 pbc="F F F"
Zn       0.00000000       0.00000000       0.00000000       0.00000000       0.00000000       0.00221630
Zn       0.00000000       0.00000000       4.47151515       0.00000000       0.00000000      -0.00221630
2
Properties=species:S:1:pos:R:3:forces:R:3 energy=-0.3469836639218938 pbc="F F F"
Zn       0.00000000       0.00000000       0.00000000       0.00000000       0.00000000       0.00170805
Zn       0.00000000       0.00000000       4.53030303       0.00000000       0.00000000      -0.00170805
2
Properties=species:S:1:pos:R:3:forces:R:3 energy=-0.34688861632048046 pbc="F F F"
Zn       0.00000000       0.00000000       0.00000000       0.00000000       0.00000000       0.00159357
Zn       0.00000000       0.00000000       4.58909091       0.00000000       0.00000000      -0.00159357
2
Properties=species:S:1:pos:R:3:forces:R:3 energy=-0.34678807501771247 pbc="F F F"
Zn       0.00000000       0.00000000       0.00000000       0.00000000       0.00000000       0.00189628
Zn       0.00000000       0.00000000       4.64787879       0.00000000       0.00000000      -0.00189628
2
Properties=species:S:1:pos:R:3:forces:R:3 energy=-0.3466576268482885 pbc="F F F"
Zn       0.00000000       0.00000000       0.00000000       0.00000000       0.00000000       0.00260628
Zn       0.00000000       0.00000000       4.70666667       0.00000000       0.00000000      -0.00260628
2
Properties=species:S:1:pos:R:3:forces:R:3 energy=-0.34647484293511455 pbc="F F F"
Zn       0.00000000       0.00000000       0.00000000       0.00000000       0.00000000       0.00366131
Zn       0.00000000       0.00000000       4.76545455       0.00000000       0.00000000      -0.00366131
2
Properties=species:S:1:pos:R:3:forces:R:3 energy=-0.3462228083266222 pbc="F F F"
Zn       0.00000000       0.00000000       0.00000000       0.00000000       0.00000000       0.00493842
Zn       0.00000000       0.00000000       4.82424242       0.00000000       0.00000000      -0.00493842
2
Properties=species:S:1:pos:R:3:forces:R:3 energy=-0.3458933723258082 pbc="F F F"
Zn       0.00000000       0.00000000       0.00000000       0.00000000       0.00000000       0.00625544
Zn       0.00000000       0.00000000       4.88303030       0.00000000       0.00000000      -0.00625544
2
Properties=species:S:1:pos:R:3:forces:R:3 energy=-0.3454908769483547 pbc="F F F"
Zn       0.00000000       0.00000000       0.00000000       0.00000000       0.00000000       0.00738812
Zn       0.00000000       0.00000000       4.94181818       0.00000000       0.00000000      -0.00738812
2
Properties=species:S:1:pos:R:3:forces:R:3 energy=-0.3450329719647646 pbc="F F F"
Zn       0.00000000       0.00000000       0.00000000       0.00000000       0.00000000       0.00810345
Zn       0.00000000       0.00000000       5.00060606       0.00000000       0.00000000      -0.00810345
2
Properties=species:S:1:pos:R:3:forces:R:3 energy=-0.344549530221431 pbc="F F F"
Zn       0.00000000       0.00000000       0.00000000       0.00000000       0.00000000       0.00824349
Zn       0.00000000       0.00000000       5.05939394       0.00000000       0.00000000      -0.00824349
2
Properties=species:S:1:pos:R:3:forces:R:3 energy=-0.34407405031658944 pbc="F F F"
Zn       0.00000000       0.00000000       0.00000000       0.00000000       0.00000000       0.00786987
Zn       0.00000000       0.00000000       5.11818182       0.00000000       0.00000000      -0.00786987
2
Properties=species:S:1:pos:R:3:forces:R:3 energy=-0.3436265401478425 pbc="F F F"
Zn       0.00000000       0.00000000       0.00000000       0.00000000       0.00000000       0.00738640
Zn       0.00000000       0.00000000       5.17696970       0.00000000       0.00000000      -0.00738640
2
Properties=species:S:1:pos:R:3:forces:R:3 energy=-0.34319638116076256 pbc="F F F"
Zn       0.00000000       0.00000000       0.00000000       0.00000000       0.00000000       0.00735541
Zn       0.00000000       0.00000000       5.23575758       0.00000000       0.00000000      -0.00735541
2
Properties=species:S:1:pos:R:3:forces:R:3 energy=-0.34275031695520297 pbc="F F F"
Zn       0.00000000       0.00000000       0.00000000       0.00000000       0.00000000       0.00786906
Zn       0.00000000       0.00000000       5.29454545       0.00000000       0.00000000      -0.00786906
2
Properties=species:S:1:pos:R:3:forces:R:3 energy=-0.34227587931280296 pbc="F F F"
Zn       0.00000000       0.00000000       0.00000000       0.00000000       0.00000000       0.00813377
Zn       0.00000000       0.00000000       5.35333333       0.00000000       0.00000000      -0.00813377
2
Properties=species:S:1:pos:R:3:forces:R:3 energy=-0.3418190491210073 pbc="F F F"
Zn       0.00000000       0.00000000       0.00000000       0.00000000       0.00000000       0.00716219
Zn       0.00000000       0.00000000       5.41212121       0.00000000       0.00000000      -0.00716219
2
Properties=species:S:1:pos:R:3:forces:R:3 energy=-0.3414568008065799 pbc="F F F"
Zn       0.00000000       0.00000000       0.00000000       0.00000000       0.00000000       0.00507356
Zn       0.00000000       0.00000000       5.47090909       0.00000000       0.00000000      -0.00507356
2
Properties=species:S:1:pos:R:3:forces:R:3 energy=-0.34121251600908836 pbc="F F F"
Zn       0.00000000       0.00000000       0.00000000       0.00000000       0.00000000       0.00351665
Zn       0.00000000       0.00000000       5.52969697       0.00000000       0.00000000      -0.00351665
2
Properties=species:S:1:pos:R:3:forces:R:3 energy=-0.3409899026206917 pbc="F F F"
Zn       0.00000000       0.00000000       0.00000000       0.00000000       0.00000000       0.00463801
Zn       0.00000000       0.00000000       5.58848485       0.00000000       0.00000000      -0.00463801
2
Properties=species:S:1:pos:R:3:forces:R:3 energy=-0.3405982774509473 pbc="F F F"
Zn       0.00000000       0.00000000       0.00000000       0.00000000       0.00000000       0.00916780
Zn       0.00000000       0.00000000       5.64727273       0.00000000       0.00000000      -0.00916780
2
Properties=species:S:1:pos:R:3:forces:R:3 energy=-0.33988449506436497 pbc="F F F"
Zn       0.00000000       0.00000000       0.00000000       0.00000000       0.00000000       0.01501623
Zn       0.00000000       0.00000000       5.70606061       0.00000000       0.00000000      -0.01501623
2
Properties=species:S:1:pos:R:3:forces:R:3 energy=-0.338882669396382 pbc="F F F"
Zn       0.00000000       0.00000000       0.00000000       0.00000000       0.00000000       0.01831452
Zn       0.00000000       0.00000000       5.76484848       0.00000000       0.00000000      -0.01831452
2
Properties=species:S:1:pos:R:3:forces:R:3 energy=-0.3378261558708739 pbc="F F F"
Zn       0.00000000       0.00000000       0.00000000       0.00000000       0.00000000       0.01688020
Zn       0.00000000       0.00000000       5.82363636       0.00000000       0.00000000      -0.01688020
2
Properties=species:S:1:pos:R:3:forces:R:3 energy=-0.3369645635567831 pbc="F F F"
Zn       0.00000000       0.00000000       0.00000000       0.00000000       0.00000000       0.01223647
Zn       0.00000000       0.00000000       5.88242424       0.00000000       0.00000000      -0.01223647
2
Properties=species:S:1:pos:R:3:forces:R:3 energy=-0.336384851326858 pbc="F F F"
Zn       0.00000000       0.00000000       0.00000000       0.00000000       0.00000000       0.00771752
Zn       0.00000000       0.00000000       5.94121212       0.00000000       0.00000000      -0.00771752
2
Properties=species:S:1:pos:R:3:forces:R:3 energy=-0.3360060079971128 pbc="F F F"
Zn       0.00000000       0.00000000       0.00000000       0.00000000       0.00000000       0.00571529
Zn       0.00000000       0.00000000       6.00000000       0.00000000       0.00000000      -0.00571529
