2
Properties=species:S:1:pos:R:3:forces:R:3 energy=29685.292683803244 pbc="F F F"
Zr       0.00000000       0.00000000       0.00000000       0.00000000       0.00000000 -697376.56250000
Zr       0.00000000       0.00000000       0.10000000       0.00000000       0.00000000  697376.56250000
2
Properties=species:S:1:pos:R:3:forces:R:3 energy=8948.126668178244 pbc="F F F"
Zr       0.00000000       0.00000000       0.00000000       0.00000000       0.00000000 -156437.40625000
Zr       0.00000000       0.00000000       0.15959596       0.00000000       0.00000000  156437.40625000
2
Properties=species:S:1:pos:R:3:forces:R:3 energy=3501.4987384907445 pbc="F F F"
Zr       0.00000000       0.00000000       0.00000000       0.00000000       0.00000000  -50034.85546875
Zr       0.00000000       0.00000000       0.21919192       0.00000000       0.00000000   50034.85546875
2
Properties=species:S:1:pos:R:3:forces:R:3 energy=1592.4940998188692 pbc="F F F"
Zr       0.00000000       0.00000000       0.00000000       0.00000000       0.00000000  -19548.09375000
Zr       0.00000000       0.00000000       0.27878788       0.00000000       0.00000000   19548.09375000
2
Properties=species:S:1:pos:R:3:forces:R:3 energy=803.1614582173069 pbc="F F F"
Zr       0.00000000       0.00000000       0.00000000       0.00000000       0.00000000   -8625.18261719
Zr       0.00000000       0.00000000       0.33838384       0.00000000       0.00000000    8625.18261719
2
Properties=species:S:1:pos:R:3:forces:R:3 energy=441.76167794386936 pbc="F F F"
Zr       0.00000000       0.00000000       0.00000000       0.00000000       0.00000000   -4118.74462891
Zr       0.00000000       0.00000000       0.39797980       0.00000000       0.00000000    4118.74462891
2
Properties=species:S:1:pos:R:3:forces:R:3 energy=264.65062448974373 pbc="F F F"
Zr       0.00000000       0.00000000       0.00000000       0.00000000       0.00000000   -2078.80615234
Zr       0.00000000       0.00000000       0.45757576       0.00000000       0.00000000    2078.80615234
2
Properties=species:S:1:pos:R:3:forces:R:3 energy=173.55952952537626 pbc="F F F"
Zr       0.00000000       0.00000000       0.00000000       0.00000000       0.00000000   -1091.66589355
Zr       0.00000000       0.00000000       0.51717172       0.00000000       0.00000000    1091.66589355
2
Properties=species:S:1:pos:R:3:forces:R:3 energy=125.130978830504 pbc="F F F"
Zr       0.00000000       0.00000000       0.00000000       0.00000000       0.00000000    -587.44201660
Zr       0.00000000       0.00000000       0.57676768       0.00000000       0.00000000     587.44201660
2
Properties=species:S:1:pos:R:3:forces:R:3 energy=98.96568803599834 pbc="F F F"
Zr       0.00000000       0.00000000       0.00000000       0.00000000       0.00000000    -317.66735840
Zr       0.00000000       0.00000000       0.63636364       0.00000000       0.00000000     317.66735840
2
Properties=species:S:1:pos:R:3:forces:R:3 energy=84.89980064184726 pbc="F F F"
Zr       0.00000000       0.00000000       0.00000000       0.00000000       0.00000000    -168.97142029
Zr       0.00000000       0.00000000       0.69595960       0.00000000       0.00000000     168.97142029
2
Properties=species:S:1:pos:R:3:forces:R:3 energy=77.48447938678427 pbc="F F F"
Zr       0.00000000       0.00000000       0.00000000       0.00000000       0.00000000     -88.60169220
Zr       0.00000000       0.00000000       0.75555556       0.00000000       0.00000000      88.60169220
2
Properties=species:S:1:pos:R:3:forces:R:3 energy=73.51868210185204 pbc="F F F"
Zr       0.00000000       0.00000000       0.00000000       0.00000000       0.00000000     -49.74493790
Zr       0.00000000       0.00000000       0.81515152       0.00000000       0.00000000      49.74493790
2
Properties=species:S:1:pos:R:3:forces:R:3 energy=71.09820347745624 pbc="F F F"
Zr       0.00000000       0.00000000       0.00000000       0.00000000       0.00000000     -34.08857346
Zr       0.00000000       0.00000000       0.87474747       0.00000000       0.00000000      34.08857346
2
Properties=species:S:1:pos:R:3:forces:R:3 energy=69.2364254906116 pbc="F F F"
Zr       0.00000000       0.00000000       0.00000000       0.00000000       0.00000000     -29.81978035
Zr       0.00000000       0.00000000       0.93434343       0.00000000       0.00000000      29.81978035
2
Properties=species:S:1:pos:R:3:forces:R:3 energy=67.37685251282808 pbc="F F F"
Zr       0.00000000       0.00000000       0.00000000       0.00000000       0.00000000     -34.07354355
Zr       0.00000000       0.00000000       0.99393939       0.00000000       0.00000000      34.07354355
2
Properties=species:S:1:pos:R:3:forces:R:3 energy=64.98856263974876 pbc="F F F"
Zr       0.00000000       0.00000000       0.00000000       0.00000000       0.00000000     -47.65018845
Zr       0.00000000       0.00000000       1.05353535       0.00000000       0.00000000      47.65018845
2
Properties=species:S:1:pos:R:3:forces:R:3 energy=61.52634410472403 pbc="F F F"
Zr       0.00000000       0.00000000       0.00000000       0.00000000       0.00000000     -69.71154022
Zr       0.00000000       0.00000000       1.11313131       0.00000000       0.00000000      69.71154022
2
Properties=species:S:1:pos:R:3:forces:R:3 energy=56.592213407413645 pbc="F F F"
Zr       0.00000000       0.00000000       0.00000000       0.00000000       0.00000000     -96.08432770
Zr       0.00000000       0.00000000       1.17272727       0.00000000       0.00000000      96.08432770
2
Properties=species:S:1:pos:R:3:forces:R:3 energy=50.112463017936356 pbc="F F F"
Zr       0.00000000       0.00000000       0.00000000       0.00000000       0.00000000    -120.57920837
Zr       0.00000000       0.00000000       1.23232323       0.00000000       0.00000000     120.57920837
2
Properties=species:S:1:pos:R:3:forces:R:3 energy=42.35299648522028 pbc="F F F"
Zr       0.00000000       0.00000000       0.00000000       0.00000000       0.00000000    -138.47778320
Zr       0.00000000       0.00000000       1.29191919       0.00000000       0.00000000     138.47778320
2
Properties=species:S:1:pos:R:3:forces:R:3 energy=33.781720830861815 pbc="F F F"
Zr       0.00000000       0.00000000       0.00000000       0.00000000       0.00000000    -147.63108826
Zr       0.00000000       0.00000000       1.35151515       0.00000000       0.00000000     147.63108826
2
Properties=species:S:1:pos:R:3:forces:R:3 energy=24.9521658766042 pbc="F F F"
Zr       0.00000000       0.00000000       0.00000000       0.00000000       0.00000000    -146.83959961
Zr       0.00000000       0.00000000       1.41111111       0.00000000       0.00000000     146.83959961
2
Properties=species:S:1:pos:R:3:forces:R:3 energy=16.538161762502035 pbc="F F F"
Zr       0.00000000       0.00000000       0.00000000       0.00000000       0.00000000    -133.09500122
Zr       0.00000000       0.00000000       1.47070707       0.00000000       0.00000000     133.09500122
2
Properties=species:S:1:pos:R:3:forces:R:3 energy=9.35899114067084 pbc="F F F"
Zr       0.00000000       0.00000000       0.00000000       0.00000000       0.00000000    -106.17943573
Zr       0.00000000       0.00000000       1.53030303       0.00000000       0.00000000     106.17943573
2
Properties=species:S:1:pos:R:3:forces:R:3 energy=3.943835154065345 pbc="F F F"
Zr       0.00000000       0.00000000       0.00000000       0.00000000       0.00000000     -76.16940308
Zr       0.00000000       0.00000000       1.58989899       0.00000000       0.00000000      76.16940308
2
Properties=species:S:1:pos:R:3:forces:R:3 energy=0.1363485746380834 pbc="F F F"
Zr       0.00000000       0.00000000       0.00000000       0.00000000       0.00000000     -52.93967438
Zr       0.00000000       0.00000000       1.64949495       0.00000000       0.00000000      52.93967438
2
Properties=species:S:1:pos:R:3:forces:R:3 energy=-2.4979688633979387 pbc="F F F"
Zr       0.00000000       0.00000000       0.00000000       0.00000000       0.00000000     -36.36252594
Zr       0.00000000       0.00000000       1.70909091       0.00000000       0.00000000      36.36252594
2
Properties=species:S:1:pos:R:3:forces:R:3 energy=-4.296791813488016 pbc="F F F"
Zr       0.00000000       0.00000000       0.00000000       0.00000000       0.00000000     -24.81855774
Zr       0.00000000       0.00000000       1.76868687       0.00000000       0.00000000      24.81855774
2
Properties=species:S:1:pos:R:3:forces:R:3 energy=-5.545816830481645 pbc="F F F"
Zr       0.00000000       0.00000000       0.00000000       0.00000000       0.00000000     -17.73165321
Zr       0.00000000       0.00000000       1.82828283       0.00000000       0.00000000      17.73165321
2
Properties=species:S:1:pos:R:3:forces:R:3 energy=-6.466163754705323 pbc="F F F"
Zr       0.00000000       0.00000000       0.00000000       0.00000000       0.00000000     -13.46366787
Zr       0.00000000       0.00000000       1.88787879       0.00000000       0.00000000      13.46366787
2
Properties=species:S:1:pos:R:3:forces:R:3 energy=-7.17353924068577 pbc="F F F"
Zr       0.00000000       0.00000000       0.00000000       0.00000000       0.00000000     -10.38850594
Zr       0.00000000       0.00000000       1.94747475       0.00000000       0.00000000      10.38850594
2
Properties=species:S:1:pos:R:3:forces:R:3 energy=-7.71371804770097 pbc="F F F"
Zr       0.00000000       0.00000000       0.00000000       0.00000000       0.00000000      -7.80215263
Zr       0.00000000       0.00000000       2.00707071       0.00000000       0.00000000       7.80215263
2
Properties=species:S:1:pos:R:3:forces:R:3 energy=-8.110774915591804 pbc="F F F"
Zr       0.00000000       0.00000000       0.00000000       0.00000000       0.00000000      -5.58504629
Zr       0.00000000       0.00000000       2.06666667       0.00000000       0.00000000       5.58504629
2
Properties=species:S:1:pos:R:3:forces:R:3 energy=-8.38686788255686 pbc="F F F"
Zr       0.00000000       0.00000000       0.00000000       0.00000000       0.00000000      -3.74166298
Zr       0.00000000       0.00000000       2.12626263       0.00000000       0.00000000       3.74166298
2
Properties=species:S:1:pos:R:3:forces:R:3 energy=-8.563604512309707 pbc="F F F"
Zr       0.00000000       0.00000000       0.00000000       0.00000000       0.00000000      -2.24237108
Zr       0.00000000       0.00000000       2.18585859       0.00000000       0.00000000       2.24237108
2
Properties=species:S:1:pos:R:3:forces:R:3 energy=-8.659825981119567 pbc="F F F"
Zr       0.00000000       0.00000000       0.00000000       0.00000000       0.00000000      -1.02941000
Zr       0.00000000       0.00000000       2.24545455       0.00000000       0.00000000       1.02941000
2
Properties=species:S:1:pos:R:3:forces:R:3 energy=-8.690914396483368 pbc="F F F"
Zr       0.00000000       0.00000000       0.00000000       0.00000000       0.00000000      -0.04914563
Zr       0.00000000       0.00000000       2.30505051       0.00000000       0.00000000       0.04914563
2
Properties=species:S:1:pos:R:3:forces:R:3 energy=-8.669545455237643 pbc="F F F"
Zr       0.00000000       0.00000000       0.00000000       0.00000000       0.00000000       0.73638839
Zr       0.00000000       0.00000000       2.36464646       0.00000000       0.00000000      -0.73638839
2
Properties=species:S:1:pos:R:3:forces:R:3 energy=-8.606437793824721 pbc="F F F"
Zr       0.00000000       0.00000000       0.00000000       0.00000000       0.00000000       1.35612273
Zr       0.00000000       0.00000000       2.42424242       0.00000000       0.00000000      -1.35612273
2
Properties=species:S:1:pos:R:3:forces:R:3 energy=-8.510628786911822 pbc="F F F"
Zr       0.00000000       0.00000000       0.00000000       0.00000000       0.00000000       1.83873701
Zr       0.00000000       0.00000000       2.48383838       0.00000000       0.00000000      -1.83873701
2
Properties=species:S:1:pos:R:3:forces:R:3 energy=-8.389449022940035 pbc="F F F"
Zr       0.00000000       0.00000000       0.00000000       0.00000000       0.00000000       2.21150017
Zr       0.00000000       0.00000000       2.54343434       0.00000000       0.00000000      -2.21150017
2
Properties=species:S:1:pos:R:3:forces:R:3 energy=-8.248881233808028 pbc="F F F"
Zr       0.00000000       0.00000000       0.00000000       0.00000000       0.00000000       2.49080682
Zr       0.00000000       0.00000000       2.60303030       0.00000000       0.00000000      -2.49080682
2
Properties=species:S:1:pos:R:3:forces:R:3 energy=-8.094427697693142 pbc="F F F"
Zr       0.00000000       0.00000000       0.00000000       0.00000000       0.00000000       2.67585373
Zr       0.00000000       0.00000000       2.66262626       0.00000000       0.00000000      -2.67585373
2
Properties=species:S:1:pos:R:3:forces:R:3 energy=-7.932072774565605 pbc="F F F"
Zr       0.00000000       0.00000000       0.00000000       0.00000000       0.00000000       2.75365114
Zr       0.00000000       0.00000000       2.72222222       0.00000000       0.00000000      -2.75365114
2
Properties=species:S:1:pos:R:3:forces:R:3 energy=-7.768562379481313 pbc="F F F"
Zr       0.00000000       0.00000000       0.00000000       0.00000000       0.00000000       2.71395516
Zr       0.00000000       0.00000000       2.78181818       0.00000000       0.00000000      -2.71395516
2
Properties=species:S:1:pos:R:3:forces:R:3 energy=-7.6107979736239475 pbc="F F F"
Zr       0.00000000       0.00000000       0.00000000       0.00000000       0.00000000       2.56402493
Zr       0.00000000       0.00000000       2.84141414       0.00000000       0.00000000      -2.56402493
2
Properties=species:S:1:pos:R:3:forces:R:3 energy=-7.464548734911962 pbc="F F F"
Zr       0.00000000       0.00000000       0.00000000       0.00000000       0.00000000       2.33434772
Zr       0.00000000       0.00000000       2.90101010       0.00000000       0.00000000      -2.33434772
2
Properties=species:S:1:pos:R:3:forces:R:3 energy=-7.333199622457422 pbc="F F F"
Zr       0.00000000       0.00000000       0.00000000       0.00000000       0.00000000       2.07271028
Zr       0.00000000       0.00000000       2.96060606       0.00000000       0.00000000      -2.07271028
2
Properties=species:S:1:pos:R:3:forces:R:3 energy=-7.217111028357687 pbc="F F F"
Zr       0.00000000       0.00000000       0.00000000       0.00000000       0.00000000       1.83013940
Zr       0.00000000       0.00000000       3.02020202       0.00000000       0.00000000      -1.83013940
2
Properties=species:S:1:pos:R:3:forces:R:3 energy=-7.113899341678119 pbc="F F F"
Zr       0.00000000       0.00000000       0.00000000       0.00000000       0.00000000       1.64526427
Zr       0.00000000       0.00000000       3.07979798       0.00000000       0.00000000      -1.64526427
2
Properties=species:S:1:pos:R:3:forces:R:3 energy=-7.019515975962184 pbc="F F F"
Zr       0.00000000       0.00000000       0.00000000       0.00000000       0.00000000       1.53480661
Zr       0.00000000       0.00000000       3.13939394       0.00000000       0.00000000      -1.53480661
2
Properties=species:S:1:pos:R:3:forces:R:3 energy=-6.9295568824406235 pbc="F F F"
Zr       0.00000000       0.00000000       0.00000000       0.00000000       0.00000000       1.49478722
Zr       0.00000000       0.00000000       3.19898990       0.00000000       0.00000000      -1.49478722
2
Properties=species:S:1:pos:R:3:forces:R:3 energy=-6.840247768258439 pbc="F F F"
Zr       0.00000000       0.00000000       0.00000000       0.00000000       0.00000000       1.51016307
Zr       0.00000000       0.00000000       3.25858586       0.00000000       0.00000000      -1.51016307
2
Properties=species:S:1:pos:R:3:forces:R:3 energy=-6.748814970724378 pbc="F F F"
Zr       0.00000000       0.00000000       0.00000000       0.00000000       0.00000000       1.56277084
Zr       0.00000000       0.00000000       3.31818182       0.00000000       0.00000000      -1.56277084
2
Properties=species:S:1:pos:R:3:forces:R:3 energy=-6.653698385833453 pbc="F F F"
Zr       0.00000000       0.00000000       0.00000000       0.00000000       0.00000000       1.62916911
Zr       0.00000000       0.00000000       3.37777778       0.00000000       0.00000000      -1.62916911
2
Properties=species:S:1:pos:R:3:forces:R:3 energy=-6.554953592188993 pbc="F F F"
Zr       0.00000000       0.00000000       0.00000000       0.00000000       0.00000000       1.67959547
Zr       0.00000000       0.00000000       3.43737374       0.00000000       0.00000000      -1.67959547
2
Properties=species:S:1:pos:R:3:forces:R:3 energy=-6.454276719202075 pbc="F F F"
Zr       0.00000000       0.00000000       0.00000000       0.00000000       0.00000000       1.69181597
Zr       0.00000000       0.00000000       3.49696970       0.00000000       0.00000000      -1.69181597
2
Properties=species:S:1:pos:R:3:forces:R:3 energy=-6.354130890908409 pbc="F F F"
Zr       0.00000000       0.00000000       0.00000000       0.00000000       0.00000000       1.66275430
Zr       0.00000000       0.00000000       3.55656566       0.00000000       0.00000000      -1.66275430
2
Properties=species:S:1:pos:R:3:forces:R:3 energy=-6.256694805313236 pbc="F F F"
Zr       0.00000000       0.00000000       0.00000000       0.00000000       0.00000000       1.60333264
Zr       0.00000000       0.00000000       3.61616162       0.00000000       0.00000000      -1.60333264
2
Properties=species:S:1:pos:R:3:forces:R:3 energy=-6.163344841707444 pbc="F F F"
Zr       0.00000000       0.00000000       0.00000000       0.00000000       0.00000000       1.52787757
Zr       0.00000000       0.00000000       3.67575758       0.00000000       0.00000000      -1.52787757
2
Properties=species:S:1:pos:R:3:forces:R:3 energy=-6.074665359867592 pbc="F F F"
Zr       0.00000000       0.00000000       0.00000000       0.00000000       0.00000000       1.44819617
Zr       0.00000000       0.00000000       3.73535354       0.00000000       0.00000000      -1.44819617
2
Properties=species:S:1:pos:R:3:forces:R:3 energy=-5.990661868359845 pbc="F F F"
Zr       0.00000000       0.00000000       0.00000000       0.00000000       0.00000000       1.37186038
Zr       0.00000000       0.00000000       3.79494949       0.00000000       0.00000000      -1.37186038
2
Properties=species:S:1:pos:R:3:forces:R:3 energy=-5.911012389600965 pbc="F F F"
Zr       0.00000000       0.00000000       0.00000000       0.00000000       0.00000000       1.30240083
Zr       0.00000000       0.00000000       3.85454545       0.00000000       0.00000000      -1.30240083
2
Properties=species:S:1:pos:R:3:forces:R:3 energy=-5.835278452210321 pbc="F F F"
Zr       0.00000000       0.00000000       0.00000000       0.00000000       0.00000000       1.24038172
Zr       0.00000000       0.00000000       3.91414141       0.00000000       0.00000000      -1.24038172
2
Properties=species:S:1:pos:R:3:forces:R:3 energy=-5.763042825018624 pbc="F F F"
Zr       0.00000000       0.00000000       0.00000000       0.00000000       0.00000000       1.18466794
Zr       0.00000000       0.00000000       3.97373737       0.00000000       0.00000000      -1.18466794
2
Properties=species:S:1:pos:R:3:forces:R:3 energy=-5.69398496741344 pbc="F F F"
Zr       0.00000000       0.00000000       0.00000000       0.00000000       0.00000000       1.13350046
Zr       0.00000000       0.00000000       4.03333333       0.00000000       0.00000000      -1.13350046
2
Properties=species:S:1:pos:R:3:forces:R:3 energy=-5.627882638592857 pbc="F F F"
Zr       0.00000000       0.00000000       0.00000000       0.00000000       0.00000000       1.08518112
Zr       0.00000000       0.00000000       4.09292929       0.00000000       0.00000000      -1.08518112
2
Properties=species:S:1:pos:R:3:forces:R:3 energy=-5.564607800772182 pbc="F F F"
Zr       0.00000000       0.00000000       0.00000000       0.00000000       0.00000000       1.03846502
Zr       0.00000000       0.00000000       4.15252525       0.00000000       0.00000000      -1.03846502
2
Properties=species:S:1:pos:R:3:forces:R:3 energy=-5.504088236128623 pbc="F F F"
Zr       0.00000000       0.00000000       0.00000000       0.00000000       0.00000000       0.99268776
Zr       0.00000000       0.00000000       4.21212121       0.00000000       0.00000000      -0.99268776
2
Properties=species:S:1:pos:R:3:forces:R:3 energy=-5.446270982395559 pbc="F F F"
Zr       0.00000000       0.00000000       0.00000000       0.00000000       0.00000000       0.94775027
Zr       0.00000000       0.00000000       4.27171717       0.00000000       0.00000000      -0.94775027
2
Properties=species:S:1:pos:R:3:forces:R:3 energy=-5.391100963889451 pbc="F F F"
Zr       0.00000000       0.00000000       0.00000000       0.00000000       0.00000000       0.90397602
Zr       0.00000000       0.00000000       4.33131313       0.00000000       0.00000000      -0.90397602
2
Properties=species:S:1:pos:R:3:forces:R:3 energy=-5.3384913895921615 pbc="F F F"
Zr       0.00000000       0.00000000       0.00000000       0.00000000       0.00000000       0.86189228
Zr       0.00000000       0.00000000       4.39090909       0.00000000       0.00000000      -0.86189228
2
Properties=species:S:1:pos:R:3:forces:R:3 energy=-5.288324394714868 pbc="F F F"
Zr       0.00000000       0.00000000       0.00000000       0.00000000       0.00000000       0.82206476
Zr       0.00000000       0.00000000       4.45050505       0.00000000       0.00000000      -0.82206476
2
Properties=species:S:1:pos:R:3:forces:R:3 energy=-5.240454391229455 pbc="F F F"
Zr       0.00000000       0.00000000       0.00000000       0.00000000       0.00000000       0.78492576
Zr       0.00000000       0.00000000       4.51010101       0.00000000       0.00000000      -0.78492576
2
Properties=species:S:1:pos:R:3:forces:R:3 energy=-5.194709804154754 pbc="F F F"
Zr       0.00000000       0.00000000       0.00000000       0.00000000       0.00000000       0.75067776
Zr       0.00000000       0.00000000       4.56969697       0.00000000       0.00000000      -0.75067776
2
Properties=species:S:1:pos:R:3:forces:R:3 energy=-5.150923321373772 pbc="F F F"
Zr       0.00000000       0.00000000       0.00000000       0.00000000       0.00000000       0.71922815
Zr       0.00000000       0.00000000       4.62929293       0.00000000       0.00000000      -0.71922815
2
Properties=species:S:1:pos:R:3:forces:R:3 energy=-5.108936955108744 pbc="F F F"
Zr       0.00000000       0.00000000       0.00000000       0.00000000       0.00000000       0.69018000
Zr       0.00000000       0.00000000       4.68888889       0.00000000       0.00000000      -0.69018000
2
Properties=species:S:1:pos:R:3:forces:R:3 energy=-5.068624949111664 pbc="F F F"
Zr       0.00000000       0.00000000       0.00000000       0.00000000       0.00000000       0.66284299
Zr       0.00000000       0.00000000       4.74848485       0.00000000       0.00000000      -0.66284299
2
Properties=species:S:1:pos:R:3:forces:R:3 energy=-5.0299159239136575 pbc="F F F"
Zr       0.00000000       0.00000000       0.00000000       0.00000000       0.00000000       0.63627744
Zr       0.00000000       0.00000000       4.80808081       0.00000000       0.00000000      -0.63627744
2
Properties=species:S:1:pos:R:3:forces:R:3 energy=-4.992794026904272 pbc="F F F"
Zr       0.00000000       0.00000000       0.00000000       0.00000000       0.00000000       0.60928607
Zr       0.00000000       0.00000000       4.86767677       0.00000000       0.00000000      -0.60928607
2
Properties=species:S:1:pos:R:3:forces:R:3 energy=-4.957330042452192 pbc="F F F"
Zr       0.00000000       0.00000000       0.00000000       0.00000000       0.00000000       0.58039027
Zr       0.00000000       0.00000000       4.92727273       0.00000000       0.00000000      -0.58039027
2
Properties=species:S:1:pos:R:3:forces:R:3 energy=-4.923683776091031 pbc="F F F"
Zr       0.00000000       0.00000000       0.00000000       0.00000000       0.00000000       0.54807574
Zr       0.00000000       0.00000000       4.98686869       0.00000000       0.00000000      -0.54807574
2
Properties=species:S:1:pos:R:3:forces:R:3 energy=-4.892091536375979 pbc="F F F"
Zr       0.00000000       0.00000000       0.00000000       0.00000000       0.00000000       0.51159221
Zr       0.00000000       0.00000000       5.04646465       0.00000000       0.00000000      -0.51159221
2
Properties=species:S:1:pos:R:3:forces:R:3 energy=-4.862759006578146 pbc="F F F"
Zr       0.00000000       0.00000000       0.00000000       0.00000000       0.00000000       0.47272086
Zr       0.00000000       0.00000000       5.10606061       0.00000000       0.00000000      -0.47272086
2
Properties=species:S:1:pos:R:3:forces:R:3 energy=-4.8356720543743545 pbc="F F F"
Zr       0.00000000       0.00000000       0.00000000       0.00000000       0.00000000       0.43748707
Zr       0.00000000       0.00000000       5.16565657       0.00000000       0.00000000      -0.43748707
2
Properties=species:S:1:pos:R:3:forces:R:3 energy=-4.810377126992951 pbc="F F F"
Zr       0.00000000       0.00000000       0.00000000       0.00000000       0.00000000       0.41379410
Zr       0.00000000       0.00000000       5.22525253       0.00000000       0.00000000      -0.41379410
2
Properties=species:S:1:pos:R:3:forces:R:3 energy=-4.786108421015228 pbc="F F F"
Zr       0.00000000       0.00000000       0.00000000       0.00000000       0.00000000       0.40183958
Zr       0.00000000       0.00000000       5.28484848       0.00000000       0.00000000      -0.40183958
2
Properties=species:S:1:pos:R:3:forces:R:3 energy=-4.762528410482108 pbc="F F F"
Zr       0.00000000       0.00000000       0.00000000       0.00000000       0.00000000       0.38738599
Zr       0.00000000       0.00000000       5.34444444       0.00000000       0.00000000      -0.38738599
2
Properties=species:S:1:pos:R:3:forces:R:3 energy=-4.740307484473553 pbc="F F F"
Zr       0.00000000       0.00000000       0.00000000       0.00000000       0.00000000       0.35488102
Zr       0.00000000       0.00000000       5.40404040       0.00000000       0.00000000      -0.35488102
2
Properties=species:S:1:pos:R:3:forces:R:3 energy=-4.720515512398158 pbc="F F F"
Zr       0.00000000       0.00000000       0.00000000       0.00000000       0.00000000       0.30851454
Zr       0.00000000       0.00000000       5.46363636       0.00000000       0.00000000      -0.30851454
2
Properties=species:S:1:pos:R:3:forces:R:3 energy=-4.70333809382514 pbc="F F F"
Zr       0.00000000       0.00000000       0.00000000       0.00000000       0.00000000       0.27224100
Zr       0.00000000       0.00000000       5.52323232       0.00000000       0.00000000      -0.27224100
2
Properties=species:S:1:pos:R:3:forces:R:3 energy=-4.687410938160997 pbc="F F F"
Zr       0.00000000       0.00000000       0.00000000       0.00000000       0.00000000       0.26825869
Zr       0.00000000       0.00000000       5.58282828       0.00000000       0.00000000      -0.26825869
2
Properties=species:S:1:pos:R:3:forces:R:3 energy=-4.670812481221774 pbc="F F F"
Zr       0.00000000       0.00000000       0.00000000       0.00000000       0.00000000       0.29083478
Zr       0.00000000       0.00000000       5.64242424       0.00000000       0.00000000      -0.29083478
2
Properties=species:S:1:pos:R:3:forces:R:3 energy=-4.6529432430255495 pbc="F F F"
Zr       0.00000000       0.00000000       0.00000000       0.00000000       0.00000000       0.30307400
Zr       0.00000000       0.00000000       5.70202020       0.00000000       0.00000000      -0.30307400
2
Properties=species:S:1:pos:R:3:forces:R:3 energy=-4.635595825032853 pbc="F F F"
Zr       0.00000000       0.00000000       0.00000000       0.00000000       0.00000000       0.27155218
Zr       0.00000000       0.00000000       5.76161616       0.00000000       0.00000000      -0.27155218
2
Properties=species:S:1:pos:R:3:forces:R:3 energy=-4.621419427972995 pbc="F F F"
Zr       0.00000000       0.00000000       0.00000000       0.00000000       0.00000000       0.19907273
Zr       0.00000000       0.00000000       5.82121212       0.00000000       0.00000000      -0.19907273
2
Properties=species:S:1:pos:R:3:forces:R:3 energy=-4.61210282817477 pbc="F F F"
Zr       0.00000000       0.00000000       0.00000000       0.00000000       0.00000000       0.11556858
Zr       0.00000000       0.00000000       5.88080808       0.00000000       0.00000000      -0.11556858
2
Properties=species:S:1:pos:R:3:forces:R:3 energy=-4.607223172289308 pbc="F F F"
Zr       0.00000000       0.00000000       0.00000000       0.00000000       0.00000000       0.05229931
Zr       0.00000000       0.00000000       5.94040404       0.00000000       0.00000000      -0.05229931
2
Properties=species:S:1:pos:R:3:forces:R:3 energy=-4.6050610630558495 pbc="F F F"
Zr       0.00000000       0.00000000       0.00000000       0.00000000       0.00000000       0.02814879
Zr       0.00000000       0.00000000       6.00000000       0.00000000       0.00000000      -0.02814879
