2
Properties=species:S:1:pos:R:3:forces:R:3 energy=53112.93430214838 pbc="F F F"
Ba       0.00000000       0.00000000       0.00000000       0.00000000       0.00000000 -1297848.50000000
Ba       0.00000000       0.00000000       0.10000000       0.00000000       0.00000000 1297848.50000000
2
Properties=species:S:1:pos:R:3:forces:R:3 energy=15248.895239648382 pbc="F F F"
Ba       0.00000000       0.00000000       0.00000000       0.00000000       0.00000000 -277869.50000000
Ba       0.00000000       0.00000000       0.15959596       0.00000000       0.00000000  277869.50000000
2
Properties=species:S:1:pos:R:3:forces:R:3 energy=5712.125708398382 pbc="F F F"
Ba       0.00000000       0.00000000       0.00000000       0.00000000       0.00000000  -85886.09375000
Ba       0.00000000       0.00000000       0.21919192       0.00000000       0.00000000   85886.09375000
2
Properties=species:S:1:pos:R:3:forces:R:3 energy=2479.730200585882 pbc="F F F"
Ba       0.00000000       0.00000000       0.00000000       0.00000000       0.00000000  -32475.53515625
Ba       0.00000000       0.00000000       0.27878788       0.00000000       0.00000000   32475.53515625
2
Properties=species:S:1:pos:R:3:forces:R:3 energy=1187.4301517577571 pbc="F F F"
Ba       0.00000000       0.00000000       0.00000000       0.00000000       0.00000000  -13849.46289062
Ba       0.00000000       0.00000000       0.33838384       0.00000000       0.00000000   13849.46289062
2
Properties=species:S:1:pos:R:3:forces:R:3 energy=615.5851200194759 pbc="F F F"
Ba       0.00000000       0.00000000       0.00000000       0.00000000       0.00000000   -6398.75537109
Ba       0.00000000       0.00000000       0.39797980       0.00000000       0.00000000    6398.75537109
2
Properties=species:S:1:pos:R:3:forces:R:3 energy=343.9669559569759 pbc="F F F"
Ba       0.00000000       0.00000000       0.00000000       0.00000000       0.00000000   -3140.85375977
Ba       0.00000000       0.00000000       0.45757576       0.00000000       0.00000000    3140.85375977
2
Properties=species:S:1:pos:R:3:forces:R:3 energy=207.55007058733494 pbc="F F F"
Ba       0.00000000       0.00000000       0.00000000       0.00000000       0.00000000   -1621.19775391
Ba       0.00000000       0.00000000       0.51717172       0.00000000       0.00000000    1621.19775391
2
Properties=species:S:1:pos:R:3:forces:R:3 energy=135.7180088324281 pbc="F F F"
Ba       0.00000000       0.00000000       0.00000000       0.00000000       0.00000000    -873.98577881
Ba       0.00000000       0.00000000       0.57676768       0.00000000       0.00000000     873.98577881
2
Properties=species:S:1:pos:R:3:forces:R:3 energy=96.31824383678659 pbc="F F F"
Ba       0.00000000       0.00000000       0.00000000       0.00000000       0.00000000    -489.01156616
Ba       0.00000000       0.00000000       0.63636364       0.00000000       0.00000000     489.01156616
2
Properties=species:S:1:pos:R:3:forces:R:3 energy=73.95699966046902 pbc="F F F"
Ba       0.00000000       0.00000000       0.00000000       0.00000000       0.00000000    -281.95370483
Ba       0.00000000       0.00000000       0.69595960       0.00000000       0.00000000     281.95370483
2
Properties=species:S:1:pos:R:3:forces:R:3 energy=60.92605106590251 pbc="F F F"
Ba       0.00000000       0.00000000       0.00000000       0.00000000       0.00000000    -166.15286255
Ba       0.00000000       0.00000000       0.75555556       0.00000000       0.00000000     166.15286255
2
Properties=species:S:1:pos:R:3:forces:R:3 energy=53.19365595080417 pbc="F F F"
Ba       0.00000000       0.00000000       0.00000000       0.00000000       0.00000000     -99.29155731
Ba       0.00000000       0.00000000       0.81515152       0.00000000       0.00000000      99.29155731
2
Properties=species:S:1:pos:R:3:forces:R:3 energy=48.54821308319235 pbc="F F F"
Ba       0.00000000       0.00000000       0.00000000       0.00000000       0.00000000     -60.10049438
Ba       0.00000000       0.00000000       0.87474747       0.00000000       0.00000000      60.10049438
2
Properties=species:S:1:pos:R:3:forces:R:3 energy=45.69897003950709 pbc="F F F"
Ba       0.00000000       0.00000000       0.00000000       0.00000000       0.00000000     -37.74926376
Ba       0.00000000       0.00000000       0.93434343       0.00000000       0.00000000      37.74926376
2
Properties=species:S:1:pos:R:3:forces:R:3 energy=43.82855166832115 pbc="F F F"
Ba       0.00000000       0.00000000       0.00000000       0.00000000       0.00000000     -26.53299713
Ba       0.00000000       0.00000000       0.99393939       0.00000000       0.00000000      26.53299713
2
Properties=species:S:1:pos:R:3:forces:R:3 energy=42.39325297672661 pbc="F F F"
Ba       0.00000000       0.00000000       0.00000000       0.00000000       0.00000000     -22.53224182
Ba       0.00000000       0.00000000       1.05353535       0.00000000       0.00000000      22.53224182
2
Properties=species:S:1:pos:R:3:forces:R:3 energy=41.06693264531546 pbc="F F F"
Ba       0.00000000       0.00000000       0.00000000       0.00000000       0.00000000     -22.41242790
Ba       0.00000000       0.00000000       1.11313131       0.00000000       0.00000000      22.41242790
2
Properties=species:S:1:pos:R:3:forces:R:3 energy=39.68689003368283 pbc="F F F"
Ba       0.00000000       0.00000000       0.00000000       0.00000000       0.00000000     -24.07438278
Ba       0.00000000       0.00000000       1.17272727       0.00000000       0.00000000      24.07438278
2
Properties=species:S:1:pos:R:3:forces:R:3 energy=38.192131966255566 pbc="F F F"
Ba       0.00000000       0.00000000       0.00000000       0.00000000       0.00000000     -26.00210953
Ba       0.00000000       0.00000000       1.23232323       0.00000000       0.00000000      26.00210953
2
Properties=species:S:1:pos:R:3:forces:R:3 energy=36.608602218144114 pbc="F F F"
Ba       0.00000000       0.00000000       0.00000000       0.00000000       0.00000000     -26.92126274
Ba       0.00000000       0.00000000       1.29191919       0.00000000       0.00000000      26.92126274
2
Properties=species:S:1:pos:R:3:forces:R:3 energy=35.00211583096439 pbc="F F F"
Ba       0.00000000       0.00000000       0.00000000       0.00000000       0.00000000     -26.96912575
Ba       0.00000000       0.00000000       1.35151515       0.00000000       0.00000000      26.96912575
2
Properties=species:S:1:pos:R:3:forces:R:3 energy=33.37360359718486 pbc="F F F"
Ba       0.00000000       0.00000000       0.00000000       0.00000000       0.00000000     -28.04159355
Ba       0.00000000       0.00000000       1.41111111       0.00000000       0.00000000      28.04159355
2
Properties=species:S:1:pos:R:3:forces:R:3 energy=31.602946466306392 pbc="F F F"
Ba       0.00000000       0.00000000       0.00000000       0.00000000       0.00000000     -31.89891052
Ba       0.00000000       0.00000000       1.47070707       0.00000000       0.00000000      31.89891052
2
Properties=species:S:1:pos:R:3:forces:R:3 energy=29.517508488587872 pbc="F F F"
Ba       0.00000000       0.00000000       0.00000000       0.00000000       0.00000000     -38.42416000
Ba       0.00000000       0.00000000       1.53030303       0.00000000       0.00000000      38.42416000
2
Properties=species:S:1:pos:R:3:forces:R:3 energy=27.00462069828301 pbc="F F F"
Ba       0.00000000       0.00000000       0.00000000       0.00000000       0.00000000     -45.85054779
Ba       0.00000000       0.00000000       1.58989899       0.00000000       0.00000000      45.85054779
2
Properties=species:S:1:pos:R:3:forces:R:3 energy=24.082597551998735 pbc="F F F"
Ba       0.00000000       0.00000000       0.00000000       0.00000000       0.00000000     -51.81569672
Ba       0.00000000       0.00000000       1.64949495       0.00000000       0.00000000      51.81569672
2
Properties=species:S:1:pos:R:3:forces:R:3 energy=20.88074208527147 pbc="F F F"
Ba       0.00000000       0.00000000       0.00000000       0.00000000       0.00000000     -55.19499207
Ba       0.00000000       0.00000000       1.70909091       0.00000000       0.00000000      55.19499207
2
Properties=species:S:1:pos:R:3:forces:R:3 energy=17.555258629439987 pbc="F F F"
Ba       0.00000000       0.00000000       0.00000000       0.00000000       0.00000000     -55.97827911
Ba       0.00000000       0.00000000       1.76868687       0.00000000       0.00000000      55.97827911
2
Properties=species:S:1:pos:R:3:forces:R:3 energy=14.260189504489533 pbc="F F F"
Ba       0.00000000       0.00000000       0.00000000       0.00000000       0.00000000     -54.16899109
Ba       0.00000000       0.00000000       1.82828283       0.00000000       0.00000000      54.16899109
2
Properties=species:S:1:pos:R:3:forces:R:3 energy=11.147877639794318 pbc="F F F"
Ba       0.00000000       0.00000000       0.00000000       0.00000000       0.00000000     -49.90539932
Ba       0.00000000       0.00000000       1.88787879       0.00000000       0.00000000      49.90539932
2
Properties=species:S:1:pos:R:3:forces:R:3 energy=8.348786762225926 pbc="F F F"
Ba       0.00000000       0.00000000       0.00000000       0.00000000       0.00000000     -43.79191971
Ba       0.00000000       0.00000000       1.94747475       0.00000000       0.00000000      43.79191971
2
Properties=species:S:1:pos:R:3:forces:R:3 energy=5.949688486686934 pbc="F F F"
Ba       0.00000000       0.00000000       0.00000000       0.00000000       0.00000000     -36.57427979
Ba       0.00000000       0.00000000       2.00707071       0.00000000       0.00000000      36.57427979
2
Properties=species:S:1:pos:R:3:forces:R:3 energy=4.006086823118942 pbc="F F F"
Ba       0.00000000       0.00000000       0.00000000       0.00000000       0.00000000     -28.52329445
Ba       0.00000000       0.00000000       2.06666667       0.00000000       0.00000000      28.52329445
2
Properties=species:S:1:pos:R:3:forces:R:3 energy=2.557044925757146 pbc="F F F"
Ba       0.00000000       0.00000000       0.00000000       0.00000000       0.00000000     -20.16735458
Ba       0.00000000       0.00000000       2.12626263       0.00000000       0.00000000      20.16735458
2
Properties=species:S:1:pos:R:3:forces:R:3 energy=1.5764292089598164 pbc="F F F"
Ba       0.00000000       0.00000000       0.00000000       0.00000000       0.00000000     -13.08984184
Ba       0.00000000       0.00000000       2.18585859       0.00000000       0.00000000      13.08984184
2
Properties=species:S:1:pos:R:3:forces:R:3 energy=0.9491329605406773 pbc="F F F"
Ba       0.00000000       0.00000000       0.00000000       0.00000000       0.00000000      -8.35879803
Ba       0.00000000       0.00000000       2.24545455       0.00000000       0.00000000       8.35879803
2
Properties=species:S:1:pos:R:3:forces:R:3 energy=0.5393179595816112 pbc="F F F"
Ba       0.00000000       0.00000000       0.00000000       0.00000000       0.00000000      -5.66957426
Ba       0.00000000       0.00000000       2.30505051       0.00000000       0.00000000       5.66957426
2
Properties=species:S:1:pos:R:3:forces:R:3 energy=0.24831081782671877 pbc="F F F"
Ba       0.00000000       0.00000000       0.00000000       0.00000000       0.00000000      -4.24971294
Ba       0.00000000       0.00000000       2.36464646       0.00000000       0.00000000       4.24971294
2
Properties=species:S:1:pos:R:3:forces:R:3 energy=0.019674448333613648 pbc="F F F"
Ba       0.00000000       0.00000000       0.00000000       0.00000000       0.00000000      -3.49823403
Ba       0.00000000       0.00000000       2.42424242       0.00000000       0.00000000       3.49823403
2
Properties=species:S:1:pos:R:3:forces:R:3 energy=-0.17469751295008168 pbc="F F F"
Ba       0.00000000       0.00000000       0.00000000       0.00000000       0.00000000      -3.05683279
Ba       0.00000000       0.00000000       2.48383838       0.00000000       0.00000000       3.05683279
2
Properties=species:S:1:pos:R:3:forces:R:3 energy=-0.34705779614491333 pbc="F F F"
Ba       0.00000000       0.00000000       0.00000000       0.00000000       0.00000000      -2.73881507
Ba       0.00000000       0.00000000       2.54343434       0.00000000       0.00000000       2.73881507
2
Properties=species:S:1:pos:R:3:forces:R:3 energy=-0.5019179159786116 pbc="F F F"
Ba       0.00000000       0.00000000       0.00000000       0.00000000       0.00000000      -2.46160054
Ba       0.00000000       0.00000000       2.60303030       0.00000000       0.00000000       2.46160054
2
Properties=species:S:1:pos:R:3:forces:R:3 energy=-0.6406973462711129 pbc="F F F"
Ba       0.00000000       0.00000000       0.00000000       0.00000000       0.00000000      -2.19698405
Ba       0.00000000       0.00000000       2.66262626       0.00000000       0.00000000       2.19698405
2
Properties=species:S:1:pos:R:3:forces:R:3 energy=-0.7639232298287426 pbc="F F F"
Ba       0.00000000       0.00000000       0.00000000       0.00000000       0.00000000      -1.93964696
Ba       0.00000000       0.00000000       2.72222222       0.00000000       0.00000000       1.93964696
2
Properties=species:S:1:pos:R:3:forces:R:3 energy=-0.8720567686337819 pbc="F F F"
Ba       0.00000000       0.00000000       0.00000000       0.00000000       0.00000000      -1.69089758
Ba       0.00000000       0.00000000       2.78181818       0.00000000       0.00000000       1.69089758
2
Properties=species:S:1:pos:R:3:forces:R:3 energy=-0.9656759949399637 pbc="F F F"
Ba       0.00000000       0.00000000       0.00000000       0.00000000       0.00000000      -1.45286036
Ba       0.00000000       0.00000000       2.84141414       0.00000000       0.00000000       1.45286036
2
Properties=species:S:1:pos:R:3:forces:R:3 energy=-1.0454836048235159 pbc="F F F"
Ba       0.00000000       0.00000000       0.00000000       0.00000000       0.00000000      -1.22787797
Ba       0.00000000       0.00000000       2.90101010       0.00000000       0.00000000       1.22787797
2
Properties=species:S:1:pos:R:3:forces:R:3 energy=-1.1123595494067957 pbc="F F F"
Ba       0.00000000       0.00000000       0.00000000       0.00000000       0.00000000      -1.01958251
Ba       0.00000000       0.00000000       2.96060606       0.00000000       0.00000000       1.01958251
2
Properties=species:S:1:pos:R:3:forces:R:3 energy=-1.1674448406526807 pbc="F F F"
Ba       0.00000000       0.00000000       0.00000000       0.00000000       0.00000000      -0.83315068
Ba       0.00000000       0.00000000       3.02020202       0.00000000       0.00000000       0.83315068
2
Properties=species:S:1:pos:R:3:forces:R:3 energy=-1.212210293358975 pbc="F F F"
Ba       0.00000000       0.00000000       0.00000000       0.00000000       0.00000000      -0.67413533
Ba       0.00000000       0.00000000       3.07979798       0.00000000       0.00000000       0.67413533
2
Properties=species:S:1:pos:R:3:forces:R:3 energy=-1.248416821137576 pbc="F F F"
Ba       0.00000000       0.00000000       0.00000000       0.00000000       0.00000000      -0.54623950
Ba       0.00000000       0.00000000       3.13939394       0.00000000       0.00000000       0.54623950
2
Properties=species:S:1:pos:R:3:forces:R:3 energy=-1.2779280659935894 pbc="F F F"
Ba       0.00000000       0.00000000       0.00000000       0.00000000       0.00000000      -0.44888908
Ba       0.00000000       0.00000000       3.19898990       0.00000000       0.00000000       0.44888908
2
Properties=species:S:1:pos:R:3:forces:R:3 energy=-1.302408177609924 pbc="F F F"
Ba       0.00000000       0.00000000       0.00000000       0.00000000       0.00000000      -0.37588954
Ba       0.00000000       0.00000000       3.25858586       0.00000000       0.00000000       0.37588954
2
Properties=species:S:1:pos:R:3:forces:R:3 energy=-1.3229985574317307 pbc="F F F"
Ba       0.00000000       0.00000000       0.00000000       0.00000000       0.00000000      -0.31628826
Ba       0.00000000       0.00000000       3.31818182       0.00000000       0.00000000       0.31628826
2
Properties=species:S:1:pos:R:3:forces:R:3 energy=-1.3401236437270536 pbc="F F F"
Ba       0.00000000       0.00000000       0.00000000       0.00000000       0.00000000      -0.25763795
Ba       0.00000000       0.00000000       3.37777778       0.00000000       0.00000000       0.25763795
2
Properties=species:S:1:pos:R:3:forces:R:3 energy=-1.3535284493458637 pbc="F F F"
Ba       0.00000000       0.00000000       0.00000000       0.00000000       0.00000000      -0.19019857
Ba       0.00000000       0.00000000       3.43737374       0.00000000       0.00000000       0.19019857
2
Properties=species:S:1:pos:R:3:forces:R:3 energy=-1.3625318542777585 pbc="F F F"
Ba       0.00000000       0.00000000       0.00000000       0.00000000       0.00000000      -0.10976875
Ba       0.00000000       0.00000000       3.49696970       0.00000000       0.00000000       0.10976875
2
Properties=species:S:1:pos:R:3:forces:R:3 energy=-1.3663823350197128 pbc="F F F"
Ba       0.00000000       0.00000000       0.00000000       0.00000000       0.00000000      -0.01790161
Ba       0.00000000       0.00000000       3.55656566       0.00000000       0.00000000       0.01790161
2
Properties=species:S:1:pos:R:3:forces:R:3 energy=-1.3645428175811238 pbc="F F F"
Ba       0.00000000       0.00000000       0.00000000       0.00000000       0.00000000       0.08010833
Ba       0.00000000       0.00000000       3.61616162       0.00000000       0.00000000      -0.08010833
2
Properties=species:S:1:pos:R:3:forces:R:3 energy=-1.356839229105803 pbc="F F F"
Ba       0.00000000       0.00000000       0.00000000       0.00000000       0.00000000       0.17792109
Ba       0.00000000       0.00000000       3.67575758       0.00000000       0.00000000      -0.17792109
2
Properties=species:S:1:pos:R:3:forces:R:3 energy=-1.343445518347147 pbc="F F F"
Ba       0.00000000       0.00000000       0.00000000       0.00000000       0.00000000       0.27031687
Ba       0.00000000       0.00000000       3.73535354       0.00000000       0.00000000      -0.27031687
2
Properties=species:S:1:pos:R:3:forces:R:3 energy=-1.3247876931818174 pbc="F F F"
Ba       0.00000000       0.00000000       0.00000000       0.00000000       0.00000000       0.35431564
Ba       0.00000000       0.00000000       3.79494949       0.00000000       0.00000000      -0.35431564
2
Properties=species:S:1:pos:R:3:forces:R:3 energy=-1.3013938386524568 pbc="F F F"
Ba       0.00000000       0.00000000       0.00000000       0.00000000       0.00000000       0.42931879
Ba       0.00000000       0.00000000       3.85454545       0.00000000       0.00000000      -0.42931879
2
Properties=species:S:1:pos:R:3:forces:R:3 energy=-1.2737727162172798 pbc="F F F"
Ba       0.00000000       0.00000000       0.00000000       0.00000000       0.00000000       0.49646837
Ba       0.00000000       0.00000000       3.91414141       0.00000000       0.00000000      -0.49646837
2
Properties=species:S:1:pos:R:3:forces:R:3 energy=-1.2423404902105855 pbc="F F F"
Ba       0.00000000       0.00000000       0.00000000       0.00000000       0.00000000       0.55745757
Ba       0.00000000       0.00000000       3.97373737       0.00000000       0.00000000      -0.55745757
2
Properties=species:S:1:pos:R:3:forces:R:3 energy=-1.2074308069392412 pbc="F F F"
Ba       0.00000000       0.00000000       0.00000000       0.00000000       0.00000000       0.61323738
Ba       0.00000000       0.00000000       4.03333333       0.00000000       0.00000000      -0.61323738
2
Properties=species:S:1:pos:R:3:forces:R:3 energy=-1.169362222295176 pbc="F F F"
Ba       0.00000000       0.00000000       0.00000000       0.00000000       0.00000000       0.66319209
Ba       0.00000000       0.00000000       4.09292929       0.00000000       0.00000000      -0.66319209
2
Properties=species:S:1:pos:R:3:forces:R:3 energy=-1.1285426269333065 pbc="F F F"
Ba       0.00000000       0.00000000       0.00000000       0.00000000       0.00000000       0.70509958
Ba       0.00000000       0.00000000       4.15252525       0.00000000       0.00000000      -0.70509958
2
Properties=species:S:1:pos:R:3:forces:R:3 energy=-1.085542297848201 pbc="F F F"
Ba       0.00000000       0.00000000       0.00000000       0.00000000       0.00000000       0.73584867
Ba       0.00000000       0.00000000       4.21212121       0.00000000       0.00000000      -0.73584867
2
Properties=species:S:1:pos:R:3:forces:R:3 energy=-1.0411167392655276 pbc="F F F"
Ba       0.00000000       0.00000000       0.00000000       0.00000000       0.00000000       0.75246376
Ba       0.00000000       0.00000000       4.27171717       0.00000000       0.00000000      -0.75246376
2
Properties=species:S:1:pos:R:3:forces:R:3 energy=-0.9961750490641045 pbc="F F F"
Ba       0.00000000       0.00000000       0.00000000       0.00000000       0.00000000       0.75300753
Ba       0.00000000       0.00000000       4.33131313       0.00000000       0.00000000      -0.75300753
2
Properties=species:S:1:pos:R:3:forces:R:3 energy=-0.9516912038751941 pbc="F F F"
Ba       0.00000000       0.00000000       0.00000000       0.00000000       0.00000000       0.73718786
Ba       0.00000000       0.00000000       4.39090909       0.00000000       0.00000000      -0.73718786
2
Properties=species:S:1:pos:R:3:forces:R:3 energy=-0.9086005565727414 pbc="F F F"
Ba       0.00000000       0.00000000       0.00000000       0.00000000       0.00000000       0.70667934
Ba       0.00000000       0.00000000       4.45050505       0.00000000       0.00000000      -0.70667934
2
Properties=species:S:1:pos:R:3:forces:R:3 energy=-0.8676782457470865 pbc="F F F"
Ba       0.00000000       0.00000000       0.00000000       0.00000000       0.00000000       0.66528159
Ba       0.00000000       0.00000000       4.51010101       0.00000000       0.00000000      -0.66528159
2
Properties=species:S:1:pos:R:3:forces:R:3 energy=-0.8294044037576803 pbc="F F F"
Ba       0.00000000       0.00000000       0.00000000       0.00000000       0.00000000       0.61888486
Ba       0.00000000       0.00000000       4.56969697       0.00000000       0.00000000      -0.61888486
2
Properties=species:S:1:pos:R:3:forces:R:3 energy=-0.7938637020655389 pbc="F F F"
Ba       0.00000000       0.00000000       0.00000000       0.00000000       0.00000000       0.57488394
Ba       0.00000000       0.00000000       4.62929293       0.00000000       0.00000000      -0.57488394
2
Properties=species:S:1:pos:R:3:forces:R:3 energy=-0.7606897440206638 pbc="F F F"
Ba       0.00000000       0.00000000       0.00000000       0.00000000       0.00000000       0.54057491
Ba       0.00000000       0.00000000       4.68888889       0.00000000       0.00000000      -0.54057491
2
Properties=species:S:1:pos:R:3:forces:R:3 energy=-0.7291380480061567 pbc="F F F"
Ba       0.00000000       0.00000000       0.00000000       0.00000000       0.00000000       0.52089673
Ba       0.00000000       0.00000000       4.74848485       0.00000000       0.00000000      -0.52089673
2
Properties=species:S:1:pos:R:3:forces:R:3 energy=-0.6982844903804997 pbc="F F F"
Ba       0.00000000       0.00000000       0.00000000       0.00000000       0.00000000       0.51716858
Ba       0.00000000       0.00000000       4.80808081       0.00000000       0.00000000      -0.51716858
2
Properties=species:S:1:pos:R:3:forces:R:3 energy=-0.6672117853728482 pbc="F F F"
Ba       0.00000000       0.00000000       0.00000000       0.00000000       0.00000000       0.52770042
Ba       0.00000000       0.00000000       4.86767677       0.00000000       0.00000000      -0.52770042
2
Properties=species:S:1:pos:R:3:forces:R:3 energy=-0.6351643050456333 pbc="F F F"
Ba       0.00000000       0.00000000       0.00000000       0.00000000       0.00000000       0.54933864
Ba       0.00000000       0.00000000       4.92727273       0.00000000       0.00000000      -0.54933864
2
Properties=species:S:1:pos:R:3:forces:R:3 energy=-0.601587771834529 pbc="F F F"
Ba       0.00000000       0.00000000       0.00000000       0.00000000       0.00000000       0.57837701
Ba       0.00000000       0.00000000       4.98686869       0.00000000       0.00000000      -0.57837701
2
Properties=species:S:1:pos:R:3:forces:R:3 energy=-0.5661636024669197 pbc="F F F"
Ba       0.00000000       0.00000000       0.00000000       0.00000000       0.00000000       0.61078382
Ba       0.00000000       0.00000000       5.04646465       0.00000000       0.00000000      -0.61078382
2
Properties=species:S:1:pos:R:3:forces:R:3 energy=-0.528811299252842 pbc="F F F"
Ba       0.00000000       0.00000000       0.00000000       0.00000000       0.00000000       0.64211851
Ba       0.00000000       0.00000000       5.10606061       0.00000000       0.00000000      -0.64211851
2
Properties=species:S:1:pos:R:3:forces:R:3 energy=-0.48973747994233097 pbc="F F F"
Ba       0.00000000       0.00000000       0.00000000       0.00000000       0.00000000       0.66761184
Ba       0.00000000       0.00000000       5.16565657       0.00000000       0.00000000      -0.66761184
2
Properties=species:S:1:pos:R:3:forces:R:3 energy=-0.4494441696416611 pbc="F F F"
Ba       0.00000000       0.00000000       0.00000000       0.00000000       0.00000000       0.68256789
Ba       0.00000000       0.00000000       5.22525253       0.00000000       0.00000000      -0.68256789
2
Properties=species:S:1:pos:R:3:forces:R:3 energy=-0.4086739904471615 pbc="F F F"
Ba       0.00000000       0.00000000       0.00000000       0.00000000       0.00000000       0.68301886
Ba       0.00000000       0.00000000       5.28484848       0.00000000       0.00000000      -0.68301886
2
Properties=species:S:1:pos:R:3:forces:R:3 energy=-0.36837495916714225 pbc="F F F"
Ba       0.00000000       0.00000000       0.00000000       0.00000000       0.00000000       0.66632938
Ba       0.00000000       0.00000000       5.34444444       0.00000000       0.00000000      -0.66632938
2
Properties=species:S:1:pos:R:3:forces:R:3 energy=-0.3296121403517751 pbc="F F F"
Ba       0.00000000       0.00000000       0.00000000       0.00000000       0.00000000       0.63152093
Ba       0.00000000       0.00000000       5.40404040       0.00000000       0.00000000      -0.63152093
2
Properties=species:S:1:pos:R:3:forces:R:3 energy=-0.29343727252834745 pbc="F F F"
Ba       0.00000000       0.00000000       0.00000000       0.00000000       0.00000000       0.57957518
Ba       0.00000000       0.00000000       5.46363636       0.00000000       0.00000000      -0.57957518
2
Properties=species:S:1:pos:R:3:forces:R:3 energy=-0.2608289090671893 pbc="F F F"
Ba       0.00000000       0.00000000       0.00000000       0.00000000       0.00000000       0.51322103
Ba       0.00000000       0.00000000       5.52323232       0.00000000       0.00000000      -0.51322103
2
Properties=species:S:1:pos:R:3:forces:R:3 energy=-0.2324805137582385 pbc="F F F"
Ba       0.00000000       0.00000000       0.00000000       0.00000000       0.00000000       0.43668082
Ba       0.00000000       0.00000000       5.58282828       0.00000000       0.00000000      -0.43668082
2
Properties=species:S:1:pos:R:3:forces:R:3 energy=-0.20888045056242388 pbc="F F F"
Ba       0.00000000       0.00000000       0.00000000       0.00000000       0.00000000       0.35504755
Ba       0.00000000       0.00000000       5.64242424       0.00000000       0.00000000      -0.35504755
2
Properties=species:S:1:pos:R:3:forces:R:3 energy=-0.19014600361114098 pbc="F F F"
Ba       0.00000000       0.00000000       0.00000000       0.00000000       0.00000000       0.27375582
Ba       0.00000000       0.00000000       5.70202020       0.00000000       0.00000000      -0.27375582
2
Properties=species:S:1:pos:R:3:forces:R:3 energy=-0.176139251821457 pbc="F F F"
Ba       0.00000000       0.00000000       0.00000000       0.00000000       0.00000000       0.19821101
Ba       0.00000000       0.00000000       5.76161616       0.00000000       0.00000000      -0.19821101
2
Properties=species:S:1:pos:R:3:forces:R:3 energy=-0.1663172692036019 pbc="F F F"
Ba       0.00000000       0.00000000       0.00000000       0.00000000       0.00000000       0.13328798
Ba       0.00000000       0.00000000       5.82121212       0.00000000       0.00000000      -0.13328798
2
Properties=species:S:1:pos:R:3:forces:R:3 energy=-0.15996187416715363 pbc="F F F"
Ba       0.00000000       0.00000000       0.00000000       0.00000000       0.00000000       0.08325656
Ba       0.00000000       0.00000000       5.88080808       0.00000000       0.00000000      -0.08325656
2
Properties=species:S:1:pos:R:3:forces:R:3 energy=-0.1560285320474903 pbc="F F F"
Ba       0.00000000       0.00000000       0.00000000       0.00000000       0.00000000       0.05140098
Ba       0.00000000       0.00000000       5.94040404       0.00000000       0.00000000      -0.05140098
2
Properties=species:S:1:pos:R:3:forces:R:3 energy=-0.15340794428260102 pbc="F F F"
Ba       0.00000000       0.00000000       0.00000000       0.00000000       0.00000000       0.04043264
Ba       0.00000000       0.00000000       6.00000000       0.00000000       0.00000000      -0.04043264
