2
Properties=species:S:1:pos:R:3:forces:R:3 energy=1352.9153255100814 pbc="F F F"
C        0.00000000       0.00000000       0.00000000       0.00000000       0.00000000  -25246.24609375
C        0.00000000       0.00000000       0.10000000       0.00000000       0.00000000   25246.24609375
2
Properties=species:S:1:pos:R:3:forces:R:3 energy=529.6111873264877 pbc="F F F"
C        0.00000000       0.00000000       0.00000000       0.00000000       0.00000000   -7121.94970703
C        0.00000000       0.00000000       0.15959596       0.00000000       0.00000000    7121.94970703
2
Properties=species:S:1:pos:R:3:forces:R:3 energy=261.6390498768997 pbc="F F F"
C        0.00000000       0.00000000       0.00000000       0.00000000       0.00000000   -2721.38378906
C        0.00000000       0.00000000       0.21919192       0.00000000       0.00000000    2721.38378906
2
Properties=species:S:1:pos:R:3:forces:R:3 energy=151.1019405034836 pbc="F F F"
C        0.00000000       0.00000000       0.00000000       0.00000000       0.00000000   -1225.78649902
C        0.00000000       0.00000000       0.27878788       0.00000000       0.00000000    1225.78649902
2
Properties=species:S:1:pos:R:3:forces:R:3 energy=98.37001454546377 pbc="F F F"
C        0.00000000       0.00000000       0.00000000       0.00000000       0.00000000    -631.26538086
C        0.00000000       0.00000000       0.33838384       0.00000000       0.00000000     631.26538086
2
Properties=species:S:1:pos:R:3:forces:R:3 energy=68.8177684675529 pbc="F F F"
C        0.00000000       0.00000000       0.00000000       0.00000000       0.00000000    -399.70275879
C        0.00000000       0.00000000       0.39797980       0.00000000       0.00000000     399.70275879
2
Properties=species:S:1:pos:R:3:forces:R:3 energy=48.12793390450455 pbc="F F F"
C        0.00000000       0.00000000       0.00000000       0.00000000       0.00000000    -282.24176025
C        0.00000000       0.00000000       0.45757576       0.00000000       0.00000000     282.24176025
2
Properties=species:S:1:pos:R:3:forces:R:3 energy=35.71736572738848 pbc="F F F"
C        0.00000000       0.00000000       0.00000000       0.00000000       0.00000000    -146.90730286
C        0.00000000       0.00000000       0.51717172       0.00000000       0.00000000     146.90730286
2
Properties=species:S:1:pos:R:3:forces:R:3 energy=27.932596776866898 pbc="F F F"
C        0.00000000       0.00000000       0.00000000       0.00000000       0.00000000    -125.25469208
C        0.00000000       0.00000000       0.57676768       0.00000000       0.00000000     125.25469208
2
Properties=species:S:1:pos:R:3:forces:R:3 energy=20.503229892003073 pbc="F F F"
C        0.00000000       0.00000000       0.00000000       0.00000000       0.00000000    -123.72333527
C        0.00000000       0.00000000       0.63636364       0.00000000       0.00000000     123.72333527
2
Properties=species:S:1:pos:R:3:forces:R:3 energy=13.495293704197667 pbc="F F F"
C        0.00000000       0.00000000       0.00000000       0.00000000       0.00000000    -108.25309753
C        0.00000000       0.00000000       0.69595960       0.00000000       0.00000000     108.25309753
2
Properties=species:S:1:pos:R:3:forces:R:3 energy=7.663595731613104 pbc="F F F"
C        0.00000000       0.00000000       0.00000000       0.00000000       0.00000000     -90.94702911
C        0.00000000       0.00000000       0.75555556       0.00000000       0.00000000      90.94702911
2
Properties=species:S:1:pos:R:3:forces:R:3 energy=2.269033912437982 pbc="F F F"
C        0.00000000       0.00000000       0.00000000       0.00000000       0.00000000     -87.82115173
C        0.00000000       0.00000000       0.81515152       0.00000000       0.00000000      87.82115173
2
Properties=species:S:1:pos:R:3:forces:R:3 energy=-2.2381164898242365 pbc="F F F"
C        0.00000000       0.00000000       0.00000000       0.00000000       0.00000000     -60.79186630
C        0.00000000       0.00000000       0.87474747       0.00000000       0.00000000      60.79186630
2
Properties=species:S:1:pos:R:3:forces:R:3 energy=-5.065789521297944 pbc="F F F"
C        0.00000000       0.00000000       0.00000000       0.00000000       0.00000000     -36.75167847
C        0.00000000       0.00000000       0.93434343       0.00000000       0.00000000      36.75167847
2
Properties=species:S:1:pos:R:3:forces:R:3 energy=-6.898707718826212 pbc="F F F"
C        0.00000000       0.00000000       0.00000000       0.00000000       0.00000000     -26.13371849
C        0.00000000       0.00000000       0.99393939       0.00000000       0.00000000      26.13371849
2
Properties=species:S:1:pos:R:3:forces:R:3 energy=-8.241326973596985 pbc="F F F"
C        0.00000000       0.00000000       0.00000000       0.00000000       0.00000000     -18.95899773
C        0.00000000       0.00000000       1.05353535       0.00000000       0.00000000      18.95899773
2
Properties=species:S:1:pos:R:3:forces:R:3 energy=-9.160500631466618 pbc="F F F"
C        0.00000000       0.00000000       0.00000000       0.00000000       0.00000000     -12.01847744
C        0.00000000       0.00000000       1.11313131       0.00000000       0.00000000      12.01847744
2
Properties=species:S:1:pos:R:3:forces:R:3 energy=-9.702638091876354 pbc="F F F"
C        0.00000000       0.00000000       0.00000000       0.00000000       0.00000000      -6.46075678
C        0.00000000       0.00000000       1.17272727       0.00000000       0.00000000       6.46075678
2
Properties=species:S:1:pos:R:3:forces:R:3 energy=-9.959558878839214 pbc="F F F"
C        0.00000000       0.00000000       0.00000000       0.00000000       0.00000000      -2.33891392
C        0.00000000       0.00000000       1.23232323       0.00000000       0.00000000       2.33891392
2
Properties=species:S:1:pos:R:3:forces:R:3 energy=-9.996317646678278 pbc="F F F"
C        0.00000000       0.00000000       0.00000000       0.00000000       0.00000000       1.00578487
C        0.00000000       0.00000000       1.29191919       0.00000000       0.00000000      -1.00578487
2
Properties=species:S:1:pos:R:3:forces:R:3 energy=-9.852765397151709 pbc="F F F"
C        0.00000000       0.00000000       0.00000000       0.00000000       0.00000000       3.68107796
C        0.00000000       0.00000000       1.35151515       0.00000000       0.00000000      -3.68107796
2
Properties=species:S:1:pos:R:3:forces:R:3 energy=-9.57498458096915 pbc="F F F"
C        0.00000000       0.00000000       0.00000000       0.00000000       0.00000000       5.49036789
C        0.00000000       0.00000000       1.41111111       0.00000000       0.00000000      -5.49036789
2
Properties=species:S:1:pos:R:3:forces:R:3 energy=-9.214921198085328 pbc="F F F"
C        0.00000000       0.00000000       0.00000000       0.00000000       0.00000000       6.47375917
C        0.00000000       0.00000000       1.47070707       0.00000000       0.00000000      -6.47375917
2
Properties=species:S:1:pos:R:3:forces:R:3 energy=-8.814689468139024 pbc="F F F"
C        0.00000000       0.00000000       0.00000000       0.00000000       0.00000000       6.88638401
C        0.00000000       0.00000000       1.53030303       0.00000000       0.00000000      -6.88638401
2
Properties=species:S:1:pos:R:3:forces:R:3 energy=-8.400208332374897 pbc="F F F"
C        0.00000000       0.00000000       0.00000000       0.00000000       0.00000000       6.98737907
C        0.00000000       0.00000000       1.58989899       0.00000000       0.00000000      -6.98737907
2
Properties=species:S:1:pos:R:3:forces:R:3 energy=-7.984741606747573 pbc="F F F"
C        0.00000000       0.00000000       0.00000000       0.00000000       0.00000000       6.94323397
C        0.00000000       0.00000000       1.64949495       0.00000000       0.00000000      -6.94323397
2
Properties=species:S:1:pos:R:3:forces:R:3 energy=-7.572550535546549 pbc="F F F"
C        0.00000000       0.00000000       0.00000000       0.00000000       0.00000000       6.90240002
C        0.00000000       0.00000000       1.70909091       0.00000000       0.00000000      -6.90240002
2
Properties=species:S:1:pos:R:3:forces:R:3 energy=-7.159538731667832 pbc="F F F"
C        0.00000000       0.00000000       0.00000000       0.00000000       0.00000000       6.98235416
C        0.00000000       0.00000000       1.76868687       0.00000000       0.00000000      -6.98235416
2
Properties=species:S:1:pos:R:3:forces:R:3 energy=-6.737840389426623 pbc="F F F"
C        0.00000000       0.00000000       0.00000000       0.00000000       0.00000000       7.18263626
C        0.00000000       0.00000000       1.82828283       0.00000000       0.00000000      -7.18263626
2
Properties=species:S:1:pos:R:3:forces:R:3 energy=-6.3032523185216585 pbc="F F F"
C        0.00000000       0.00000000       0.00000000       0.00000000       0.00000000       7.39131212
C        0.00000000       0.00000000       1.88787879       0.00000000       0.00000000      -7.39131212
2
Properties=species:S:1:pos:R:3:forces:R:3 energy=-5.859374023849487 pbc="F F F"
C        0.00000000       0.00000000       0.00000000       0.00000000       0.00000000       7.47517586
C        0.00000000       0.00000000       1.94747475       0.00000000       0.00000000      -7.47517586
2
Properties=species:S:1:pos:R:3:forces:R:3 energy=-5.416401163562536 pbc="F F F"
C        0.00000000       0.00000000       0.00000000       0.00000000       0.00000000       7.35305071
C        0.00000000       0.00000000       2.00707071       0.00000000       0.00000000      -7.35305071
2
Properties=species:S:1:pos:R:3:forces:R:3 energy=-4.987574808733565 pbc="F F F"
C        0.00000000       0.00000000       0.00000000       0.00000000       0.00000000       6.99902058
C        0.00000000       0.00000000       2.06666667       0.00000000       0.00000000      -6.99902058
2
Properties=species:S:1:pos:R:3:forces:R:3 energy=-4.586734405130247 pbc="F F F"
C        0.00000000       0.00000000       0.00000000       0.00000000       0.00000000       6.41648960
C        0.00000000       0.00000000       2.12626263       0.00000000       0.00000000      -6.41648960
2
Properties=species:S:1:pos:R:3:forces:R:3 energy=-4.226642688583545 pbc="F F F"
C        0.00000000       0.00000000       0.00000000       0.00000000       0.00000000       5.64076900
C        0.00000000       0.00000000       2.18585859       0.00000000       0.00000000      -5.64076900
2
Properties=species:S:1:pos:R:3:forces:R:3 energy=-3.916767511410453 pbc="F F F"
C        0.00000000       0.00000000       0.00000000       0.00000000       0.00000000       4.74685192
C        0.00000000       0.00000000       2.24545455       0.00000000       0.00000000      -4.74685192
2
Properties=species:S:1:pos:R:3:forces:R:3 energy=-3.6611974823598574 pbc="F F F"
C        0.00000000       0.00000000       0.00000000       0.00000000       0.00000000       3.83552361
C        0.00000000       0.00000000       2.30505051       0.00000000       0.00000000      -3.83552361
2
Properties=species:S:1:pos:R:3:forces:R:3 energy=-3.4580741770875845 pbc="F F F"
C        0.00000000       0.00000000       0.00000000       0.00000000       0.00000000       2.99991465
C        0.00000000       0.00000000       2.36464646       0.00000000       0.00000000      -2.99991465
2
Properties=species:S:1:pos:R:3:forces:R:3 energy=-3.300955840417658 pbc="F F F"
C        0.00000000       0.00000000       0.00000000       0.00000000       0.00000000       2.29762316
C        0.00000000       0.00000000       2.42424242       0.00000000       0.00000000      -2.29762316
2
Properties=species:S:1:pos:R:3:forces:R:3 energy=-3.181219093691901 pbc="F F F"
C        0.00000000       0.00000000       0.00000000       0.00000000       0.00000000       1.74528193
C        0.00000000       0.00000000       2.48383838       0.00000000       0.00000000      -1.74528193
2
Properties=species:S:1:pos:R:3:forces:R:3 energy=-3.090198557304136 pbc="F F F"
C        0.00000000       0.00000000       0.00000000       0.00000000       0.00000000       1.33015454
C        0.00000000       0.00000000       2.54343434       0.00000000       0.00000000      -1.33015454
2
Properties=species:S:1:pos:R:3:forces:R:3 energy=-3.0204716367460436 pbc="F F F"
C        0.00000000       0.00000000       0.00000000       0.00000000       0.00000000       1.02590883
C        0.00000000       0.00000000       2.60303030       0.00000000       0.00000000      -1.02590883
2
Properties=species:S:1:pos:R:3:forces:R:3 energy=-2.9662782200059192 pbc="F F F"
C        0.00000000       0.00000000       0.00000000       0.00000000       0.00000000       0.80438024
C        0.00000000       0.00000000       2.66262626       0.00000000       0.00000000      -0.80438024
2
Properties=species:S:1:pos:R:3:forces:R:3 energy=-2.923428691514734 pbc="F F F"
C        0.00000000       0.00000000       0.00000000       0.00000000       0.00000000       0.64178187
C        0.00000000       0.00000000       2.72222222       0.00000000       0.00000000      -0.64178187
2
Properties=species:S:1:pos:R:3:forces:R:3 energy=-2.8889658157551827 pbc="F F F"
C        0.00000000       0.00000000       0.00000000       0.00000000       0.00000000       0.52052897
C        0.00000000       0.00000000       2.78181818       0.00000000       0.00000000      -0.52052897
2
Properties=species:S:1:pos:R:3:forces:R:3 energy=-2.8608041097379027 pbc="F F F"
C        0.00000000       0.00000000       0.00000000       0.00000000       0.00000000       0.42873171
C        0.00000000       0.00000000       2.84141414       0.00000000       0.00000000      -0.42873171
2
Properties=species:S:1:pos:R:3:forces:R:3 energy=-2.83743287482222 pbc="F F F"
C        0.00000000       0.00000000       0.00000000       0.00000000       0.00000000       0.35876334
C        0.00000000       0.00000000       2.90101010       0.00000000       0.00000000      -0.35876334
2
Properties=species:S:1:pos:R:3:forces:R:3 energy=-2.817706674302455 pbc="F F F"
C        0.00000000       0.00000000       0.00000000       0.00000000       0.00000000       0.30574143
C        0.00000000       0.00000000       2.96060606       0.00000000       0.00000000      -0.30574143
2
Properties=species:S:1:pos:R:3:forces:R:3 energy=-2.800720699095757 pbc="F F F"
C        0.00000000       0.00000000       0.00000000       0.00000000       0.00000000       0.26632819
C        0.00000000       0.00000000       3.02020202       0.00000000       0.00000000      -0.26632819
2
Properties=species:S:1:pos:R:3:forces:R:3 energy=-2.7857439899491157 pbc="F F F"
C        0.00000000       0.00000000       0.00000000       0.00000000       0.00000000       0.23791838
C        0.00000000       0.00000000       3.07979798       0.00000000       0.00000000      -0.23791838
2
Properties=species:S:1:pos:R:3:forces:R:3 energy=-2.772190370963553 pbc="F F F"
C        0.00000000       0.00000000       0.00000000       0.00000000       0.00000000       0.21819799
C        0.00000000       0.00000000       3.13939394       0.00000000       0.00000000      -0.21819799
2
Properties=species:S:1:pos:R:3:forces:R:3 energy=-2.7596069389780613 pbc="F F F"
C        0.00000000       0.00000000       0.00000000       0.00000000       0.00000000       0.20499779
C        0.00000000       0.00000000       3.19898990       0.00000000       0.00000000      -0.20499779
2
Properties=species:S:1:pos:R:3:forces:R:3 energy=-2.7476663787381863 pbc="F F F"
C        0.00000000       0.00000000       0.00000000       0.00000000       0.00000000       0.19633040
C        0.00000000       0.00000000       3.25858586       0.00000000       0.00000000      -0.19633040
2
Properties=species:S:1:pos:R:3:forces:R:3 energy=-2.7361494633050847 pbc="F F F"
C        0.00000000       0.00000000       0.00000000       0.00000000       0.00000000       0.19052505
C        0.00000000       0.00000000       3.31818182       0.00000000       0.00000000      -0.19052505
2
Properties=species:S:1:pos:R:3:forces:R:3 energy=-2.7249251528557754 pbc="F F F"
C        0.00000000       0.00000000       0.00000000       0.00000000       0.00000000       0.18634871
C        0.00000000       0.00000000       3.37777778       0.00000000       0.00000000      -0.18634871
2
Properties=species:S:1:pos:R:3:forces:R:3 energy=-2.7139213999105363 pbc="F F F"
C        0.00000000       0.00000000       0.00000000       0.00000000       0.00000000       0.18303540
C        0.00000000       0.00000000       3.43737374       0.00000000       0.00000000      -0.18303540
2
Properties=species:S:1:pos:R:3:forces:R:3 energy=-2.7030992449030724 pbc="F F F"
C        0.00000000       0.00000000       0.00000000       0.00000000       0.00000000       0.18021111
C        0.00000000       0.00000000       3.49696970       0.00000000       0.00000000      -0.18021111
2
Properties=species:S:1:pos:R:3:forces:R:3 energy=-2.6924348492558905 pbc="F F F"
C        0.00000000       0.00000000       0.00000000       0.00000000       0.00000000       0.17772974
C        0.00000000       0.00000000       3.55656566       0.00000000       0.00000000      -0.17772974
2
Properties=species:S:1:pos:R:3:forces:R:3 energy=-2.6819105535156265 pbc="F F F"
C        0.00000000       0.00000000       0.00000000       0.00000000       0.00000000       0.17548144
C        0.00000000       0.00000000       3.61616162       0.00000000       0.00000000      -0.17548144
2
Properties=species:S:1:pos:R:3:forces:R:3 energy=-2.6715185875121814 pbc="F F F"
C        0.00000000       0.00000000       0.00000000       0.00000000       0.00000000       0.17324099
C        0.00000000       0.00000000       3.67575758       0.00000000       0.00000000      -0.17324099
2
Properties=species:S:1:pos:R:3:forces:R:3 energy=-2.6612696019504614 pbc="F F F"
C        0.00000000       0.00000000       0.00000000       0.00000000       0.00000000       0.17060715
C        0.00000000       0.00000000       3.73535354       0.00000000       0.00000000      -0.17060715
2
Properties=species:S:1:pos:R:3:forces:R:3 energy=-2.6512019215934925 pbc="F F F"
C        0.00000000       0.00000000       0.00000000       0.00000000       0.00000000       0.16704968
C        0.00000000       0.00000000       3.79494949       0.00000000       0.00000000      -0.16704968
2
Properties=species:S:1:pos:R:3:forces:R:3 energy=-2.641387490679748 pbc="F F F"
C        0.00000000       0.00000000       0.00000000       0.00000000       0.00000000       0.16203065
C        0.00000000       0.00000000       3.85454545       0.00000000       0.00000000      -0.16203065
2
Properties=species:S:1:pos:R:3:forces:R:3 energy=-2.63192614295769 pbc="F F F"
C        0.00000000       0.00000000       0.00000000       0.00000000       0.00000000       0.15517138
C        0.00000000       0.00000000       3.91414141       0.00000000       0.00000000      -0.15517138
2
Properties=species:S:1:pos:R:3:forces:R:3 energy=-2.62293084111667 pbc="F F F"
C        0.00000000       0.00000000       0.00000000       0.00000000       0.00000000       0.14638914
C        0.00000000       0.00000000       3.97373737       0.00000000       0.00000000      -0.14638914
2
Properties=species:S:1:pos:R:3:forces:R:3 energy=-2.6145105549987364 pbc="F F F"
C        0.00000000       0.00000000       0.00000000       0.00000000       0.00000000       0.13596085
C        0.00000000       0.00000000       4.03333333       0.00000000       0.00000000      -0.13596085
2
Properties=species:S:1:pos:R:3:forces:R:3 energy=-2.606746453002865 pbc="F F F"
C        0.00000000       0.00000000       0.00000000       0.00000000       0.00000000       0.12448563
C        0.00000000       0.00000000       4.09292929       0.00000000       0.00000000      -0.12448563
2
Properties=species:S:1:pos:R:3:forces:R:3 energy=-2.5996776500312273 pbc="F F F"
C        0.00000000       0.00000000       0.00000000       0.00000000       0.00000000       0.11276259
C        0.00000000       0.00000000       4.15252525       0.00000000       0.00000000      -0.11276259
2
Properties=species:S:1:pos:R:3:forces:R:3 energy=-2.593294583246089 pbc="F F F"
C        0.00000000       0.00000000       0.00000000       0.00000000       0.00000000       0.10162175
C        0.00000000       0.00000000       4.21212121       0.00000000       0.00000000      -0.10162175
2
Properties=species:S:1:pos:R:3:forces:R:3 energy=-2.587539292462032 pbc="F F F"
C        0.00000000       0.00000000       0.00000000       0.00000000       0.00000000       0.09177836
C        0.00000000       0.00000000       4.27171717       0.00000000       0.00000000      -0.09177836
2
Properties=species:S:1:pos:R:3:forces:R:3 energy=-2.5823193090081396 pbc="F F F"
C        0.00000000       0.00000000       0.00000000       0.00000000       0.00000000       0.08373354
C        0.00000000       0.00000000       4.33131313       0.00000000       0.00000000      -0.08373354
2
Properties=species:S:1:pos:R:3:forces:R:3 energy=-2.5775184178261914 pbc="F F F"
C        0.00000000       0.00000000       0.00000000       0.00000000       0.00000000       0.07772487
C        0.00000000       0.00000000       4.39090909       0.00000000       0.00000000      -0.07772487
2
Properties=species:S:1:pos:R:3:forces:R:3 energy=-2.5730152968854285 pbc="F F F"
C        0.00000000       0.00000000       0.00000000       0.00000000       0.00000000       0.07370716
C        0.00000000       0.00000000       4.45050505       0.00000000       0.00000000      -0.07370716
2
Properties=species:S:1:pos:R:3:forces:R:3 energy=-2.568699761324157 pbc="F F F"
C        0.00000000       0.00000000       0.00000000       0.00000000       0.00000000       0.07135584
C        0.00000000       0.00000000       4.51010101       0.00000000       0.00000000      -0.07135584
2
Properties=species:S:1:pos:R:3:forces:R:3 energy=-2.564488282040188 pbc="F F F"
C        0.00000000       0.00000000       0.00000000       0.00000000       0.00000000       0.07009277
C        0.00000000       0.00000000       4.56969697       0.00000000       0.00000000      -0.07009277
2
Properties=species:S:1:pos:R:3:forces:R:3 energy=-2.560338331195315 pbc="F F F"
C        0.00000000       0.00000000       0.00000000       0.00000000       0.00000000       0.06917720
C        0.00000000       0.00000000       4.62929293       0.00000000       0.00000000      -0.06917720
2
Properties=species:S:1:pos:R:3:forces:R:3 energy=-2.5562514806668992 pbc="F F F"
C        0.00000000       0.00000000       0.00000000       0.00000000       0.00000000       0.06784888
C        0.00000000       0.00000000       4.68888889       0.00000000       0.00000000      -0.06784888
2
Properties=species:S:1:pos:R:3:forces:R:3 energy=-2.552271763212127 pbc="F F F"
C        0.00000000       0.00000000       0.00000000       0.00000000       0.00000000       0.06549042
C        0.00000000       0.00000000       4.74848485       0.00000000       0.00000000      -0.06549042
2
Properties=species:S:1:pos:R:3:forces:R:3 energy=-2.5484730313335926 pbc="F F F"
C        0.00000000       0.00000000       0.00000000       0.00000000       0.00000000       0.06175881
C        0.00000000       0.00000000       4.80808081       0.00000000       0.00000000      -0.06175881
2
Properties=species:S:1:pos:R:3:forces:R:3 energy=-2.544938480207986 pbc="F F F"
C        0.00000000       0.00000000       0.00000000       0.00000000       0.00000000       0.05664041
C        0.00000000       0.00000000       4.86767677       0.00000000       0.00000000      -0.05664041
2
Properties=species:S:1:pos:R:3:forces:R:3 energy=-2.5417434742228084 pbc="F F F"
C        0.00000000       0.00000000       0.00000000       0.00000000       0.00000000       0.05043274
C        0.00000000       0.00000000       4.92727273       0.00000000       0.00000000      -0.05043274
2
Properties=species:S:1:pos:R:3:forces:R:3 energy=-2.538938628364744 pbc="F F F"
C        0.00000000       0.00000000       0.00000000       0.00000000       0.00000000       0.04365634
C        0.00000000       0.00000000       4.98686869       0.00000000       0.00000000      -0.04365634
2
Properties=species:S:1:pos:R:3:forces:R:3 energy=-2.536539320970003 pbc="F F F"
C        0.00000000       0.00000000       0.00000000       0.00000000       0.00000000       0.03692576
C        0.00000000       0.00000000       5.04646465       0.00000000       0.00000000      -0.03692576
2
Properties=species:S:1:pos:R:3:forces:R:3 energy=-2.534525447980151 pbc="F F F"
C        0.00000000       0.00000000       0.00000000       0.00000000       0.00000000       0.03079928
C        0.00000000       0.00000000       5.10606061       0.00000000       0.00000000      -0.03079928
2
Properties=species:S:1:pos:R:3:forces:R:3 energy=-2.532848111333617 pbc="F F F"
C        0.00000000       0.00000000       0.00000000       0.00000000       0.00000000       0.02566351
C        0.00000000       0.00000000       5.16565657       0.00000000       0.00000000      -0.02566351
2
Properties=species:S:1:pos:R:3:forces:R:3 energy=-2.5314434386307605 pbc="F F F"
C        0.00000000       0.00000000       0.00000000       0.00000000       0.00000000       0.02166728
C        0.00000000       0.00000000       5.22525253       0.00000000       0.00000000      -0.02166728
2
Properties=species:S:1:pos:R:3:forces:R:3 energy=-2.530244740402524 pbc="F F F"
C        0.00000000       0.00000000       0.00000000       0.00000000       0.00000000       0.01871696
C        0.00000000       0.00000000       5.28484848       0.00000000       0.00000000      -0.01871696
2
Properties=species:S:1:pos:R:3:forces:R:3 energy=-2.529196818491996 pbc="F F F"
C        0.00000000       0.00000000       0.00000000       0.00000000       0.00000000       0.01655612
C        0.00000000       0.00000000       5.34444444       0.00000000       0.00000000      -0.01655612
2
Properties=species:S:1:pos:R:3:forces:R:3 energy=-2.528262157908863 pbc="F F F"
C        0.00000000       0.00000000       0.00000000       0.00000000       0.00000000       0.01486005
C        0.00000000       0.00000000       5.40404040       0.00000000       0.00000000      -0.01486005
2
Properties=species:S:1:pos:R:3:forces:R:3 energy=-2.527422121496159 pbc="F F F"
C        0.00000000       0.00000000       0.00000000       0.00000000       0.00000000       0.01333496
C        0.00000000       0.00000000       5.46363636       0.00000000       0.00000000      -0.01333496
2
Properties=species:S:1:pos:R:3:forces:R:3 energy=-2.5266738436581195 pbc="F F F"
C        0.00000000       0.00000000       0.00000000       0.00000000       0.00000000       0.01177708
C        0.00000000       0.00000000       5.52323232       0.00000000       0.00000000      -0.01177708
2
Properties=species:S:1:pos:R:3:forces:R:3 energy=-2.5260211730280355 pbc="F F F"
C        0.00000000       0.00000000       0.00000000       0.00000000       0.00000000       0.01009943
C        0.00000000       0.00000000       5.58282828       0.00000000       0.00000000      -0.01009943
2
Properties=species:S:1:pos:R:3:forces:R:3 energy=-2.5254722798679308 pbc="F F F"
C        0.00000000       0.00000000       0.00000000       0.00000000       0.00000000       0.00830836
C        0.00000000       0.00000000       5.64242424       0.00000000       0.00000000      -0.00830836
2
Properties=species:S:1:pos:R:3:forces:R:3 energy=-2.525031314685111 pbc="F F F"
C        0.00000000       0.00000000       0.00000000       0.00000000       0.00000000       0.00647930
C        0.00000000       0.00000000       5.70202020       0.00000000       0.00000000      -0.00647930
2
Properties=species:S:1:pos:R:3:forces:R:3 energy=-2.524698642591973 pbc="F F F"
C        0.00000000       0.00000000       0.00000000       0.00000000       0.00000000       0.00472147
C        0.00000000       0.00000000       5.76161616       0.00000000       0.00000000      -0.00472147
2
Properties=species:S:1:pos:R:3:forces:R:3 energy=-2.5244648792777222 pbc="F F F"
C        0.00000000       0.00000000       0.00000000       0.00000000       0.00000000       0.00315672
C        0.00000000       0.00000000       5.82121212       0.00000000       0.00000000      -0.00315672
2
Properties=species:S:1:pos:R:3:forces:R:3 energy=-2.5243163748336874 pbc="F F F"
C        0.00000000       0.00000000       0.00000000       0.00000000       0.00000000       0.00189934
C        0.00000000       0.00000000       5.88080808       0.00000000       0.00000000      -0.00189934
2
Properties=species:S:1:pos:R:3:forces:R:3 energy=-2.524230203745835 pbc="F F F"
C        0.00000000       0.00000000       0.00000000       0.00000000       0.00000000       0.00105458
C        0.00000000       0.00000000       5.94040404       0.00000000       0.00000000      -0.00105458
2
Properties=species:S:1:pos:R:3:forces:R:3 energy=-2.5241803625898944 pbc="F F F"
C        0.00000000       0.00000000       0.00000000       0.00000000       0.00000000       0.00071887
C        0.00000000       0.00000000       6.00000000       0.00000000       0.00000000      -0.00071887
