2
Properties=species:S:1:pos:R:3:forces:R:3 energy=7768.948003366892 pbc="F F F"
Cl       0.00000000       0.00000000       0.00000000       0.00000000       0.00000000 -165346.51562500
Cl       0.00000000       0.00000000       0.10000000       0.00000000       0.00000000  165346.51562500
2
Properties=species:S:1:pos:R:3:forces:R:3 energy=2621.3730521950174 pbc="F F F"
Cl       0.00000000       0.00000000       0.00000000       0.00000000       0.00000000  -41525.15234375
Cl       0.00000000       0.00000000       0.15959596       0.00000000       0.00000000   41525.15234375
2
Properties=species:S:1:pos:R:3:forces:R:3 energy=1122.9682670387674 pbc="F F F"
Cl       0.00000000       0.00000000       0.00000000       0.00000000       0.00000000  -14425.81738281
Cl       0.00000000       0.00000000       0.21919192       0.00000000       0.00000000   14425.81738281
2
Properties=species:S:1:pos:R:3:forces:R:3 energy=555.9276786598613 pbc="F F F"
Cl       0.00000000       0.00000000       0.00000000       0.00000000       0.00000000   -6037.47900391
Cl       0.00000000       0.00000000       0.27878788       0.00000000       0.00000000    6037.47900391
2
Properties=species:S:1:pos:R:3:forces:R:3 energy=305.13559492596255 pbc="F F F"
Cl       0.00000000       0.00000000       0.00000000       0.00000000       0.00000000   -2840.28515625
Cl       0.00000000       0.00000000       0.33838384       0.00000000       0.00000000    2840.28515625
2
Properties=species:S:1:pos:R:3:forces:R:3 energy=183.17236862661008 pbc="F F F"
Cl       0.00000000       0.00000000       0.00000000       0.00000000       0.00000000   -1428.02575684
Cl       0.00000000       0.00000000       0.39797980       0.00000000       0.00000000    1428.02575684
2
Properties=species:S:1:pos:R:3:forces:R:3 energy=121.04388965121423 pbc="F F F"
Cl       0.00000000       0.00000000       0.00000000       0.00000000       0.00000000    -734.65881348
Cl       0.00000000       0.00000000       0.45757576       0.00000000       0.00000000     734.65881348
2
Properties=species:S:1:pos:R:3:forces:R:3 energy=89.13725823850847 pbc="F F F"
Cl       0.00000000       0.00000000       0.00000000       0.00000000       0.00000000    -369.33956909
Cl       0.00000000       0.00000000       0.51717172       0.00000000       0.00000000     369.33956909
2
Properties=species:S:1:pos:R:3:forces:R:3 energy=74.28243808524611 pbc="F F F"
Cl       0.00000000       0.00000000       0.00000000       0.00000000       0.00000000    -148.77558899
Cl       0.00000000       0.00000000       0.57676768       0.00000000       0.00000000     148.77558899
2
Properties=species:S:1:pos:R:3:forces:R:3 energy=69.4205379330543 pbc="F F F"
Cl       0.00000000       0.00000000       0.00000000       0.00000000       0.00000000     -29.09374046
Cl       0.00000000       0.00000000       0.63636364       0.00000000       0.00000000      29.09374046
2
Properties=species:S:1:pos:R:3:forces:R:3 energy=68.96922137199091 pbc="F F F"
Cl       0.00000000       0.00000000       0.00000000       0.00000000       0.00000000      -2.55427027
Cl       0.00000000       0.00000000       0.69595960       0.00000000       0.00000000       2.55427027
2
Properties=species:S:1:pos:R:3:forces:R:3 energy=67.3369052039558 pbc="F F F"
Cl       0.00000000       0.00000000       0.00000000       0.00000000       0.00000000     -63.26363754
Cl       0.00000000       0.00000000       0.75555556       0.00000000       0.00000000      63.26363754
2
Properties=species:S:1:pos:R:3:forces:R:3 energy=60.912673351442244 pbc="F F F"
Cl       0.00000000       0.00000000       0.00000000       0.00000000       0.00000000    -149.03826904
Cl       0.00000000       0.00000000       0.81515152       0.00000000       0.00000000     149.03826904
2
Properties=species:S:1:pos:R:3:forces:R:3 energy=50.642715770849094 pbc="F F F"
Cl       0.00000000       0.00000000       0.00000000       0.00000000       0.00000000    -184.31776428
Cl       0.00000000       0.00000000       0.87474747       0.00000000       0.00000000     184.31776428
2
Properties=species:S:1:pos:R:3:forces:R:3 energy=40.003514939064964 pbc="F F F"
Cl       0.00000000       0.00000000       0.00000000       0.00000000       0.00000000    -167.54971313
Cl       0.00000000       0.00000000       0.93434343       0.00000000       0.00000000     167.54971313
2
Properties=species:S:1:pos:R:3:forces:R:3 energy=30.885812331069342 pbc="F F F"
Cl       0.00000000       0.00000000       0.00000000       0.00000000       0.00000000    -139.27633667
Cl       0.00000000       0.00000000       0.99393939       0.00000000       0.00000000     139.27633667
2
Properties=species:S:1:pos:R:3:forces:R:3 energy=23.236040203061684 pbc="F F F"
Cl       0.00000000       0.00000000       0.00000000       0.00000000       0.00000000    -117.49547577
Cl       0.00000000       0.00000000       1.05353535       0.00000000       0.00000000     117.49547577
2
Properties=species:S:1:pos:R:3:forces:R:3 energy=17.03766010927709 pbc="F F F"
Cl       0.00000000       0.00000000       0.00000000       0.00000000       0.00000000     -89.54335022
Cl       0.00000000       0.00000000       1.11313131       0.00000000       0.00000000      89.54335022
2
Properties=species:S:1:pos:R:3:forces:R:3 energy=12.497405002395148 pbc="F F F"
Cl       0.00000000       0.00000000       0.00000000       0.00000000       0.00000000     -64.52745056
Cl       0.00000000       0.00000000       1.17272727       0.00000000       0.00000000      64.52745056
2
Properties=species:S:1:pos:R:3:forces:R:3 energy=9.125666371193184 pbc="F F F"
Cl       0.00000000       0.00000000       0.00000000       0.00000000       0.00000000     -50.16962433
Cl       0.00000000       0.00000000       1.23232323       0.00000000       0.00000000      50.16962433
2
Properties=species:S:1:pos:R:3:forces:R:3 energy=6.395950007257423 pbc="F F F"
Cl       0.00000000       0.00000000       0.00000000       0.00000000       0.00000000     -41.97717285
Cl       0.00000000       0.00000000       1.29191919       0.00000000       0.00000000      41.97717285
2
Properties=species:S:1:pos:R:3:forces:R:3 energy=4.097018809468857 pbc="F F F"
Cl       0.00000000       0.00000000       0.00000000       0.00000000       0.00000000     -35.18160629
Cl       0.00000000       0.00000000       1.35151515       0.00000000       0.00000000      35.18160629
2
Properties=species:S:1:pos:R:3:forces:R:3 energy=2.2061905260336228 pbc="F F F"
Cl       0.00000000       0.00000000       0.00000000       0.00000000       0.00000000     -28.28377724
Cl       0.00000000       0.00000000       1.41111111       0.00000000       0.00000000      28.28377724
2
Properties=species:S:1:pos:R:3:forces:R:3 energy=0.713958063558699 pbc="F F F"
Cl       0.00000000       0.00000000       0.00000000       0.00000000       0.00000000     -21.97545433
Cl       0.00000000       0.00000000       1.47070707       0.00000000       0.00000000      21.97545433
2
Properties=species:S:1:pos:R:3:forces:R:3 energy=-0.43928125369006515 pbc="F F F"
Cl       0.00000000       0.00000000       0.00000000       0.00000000       0.00000000     -16.95187187
Cl       0.00000000       0.00000000       1.53030303       0.00000000       0.00000000      16.95187187
2
Properties=species:S:1:pos:R:3:forces:R:3 energy=-1.330277121306295 pbc="F F F"
Cl       0.00000000       0.00000000       0.00000000       0.00000000       0.00000000     -13.11317158
Cl       0.00000000       0.00000000       1.58989899       0.00000000       0.00000000      13.11317158
2
Properties=species:S:1:pos:R:3:forces:R:3 energy=-2.017827509970034 pbc="F F F"
Cl       0.00000000       0.00000000       0.00000000       0.00000000       0.00000000     -10.06477356
Cl       0.00000000       0.00000000       1.64949495       0.00000000       0.00000000      10.06477356
2
Properties=species:S:1:pos:R:3:forces:R:3 energy=-2.540454150825767 pbc="F F F"
Cl       0.00000000       0.00000000       0.00000000       0.00000000       0.00000000      -7.55121040
Cl       0.00000000       0.00000000       1.70909091       0.00000000       0.00000000       7.55121040
2
Properties=species:S:1:pos:R:3:forces:R:3 energy=-2.9259296943859896 pbc="F F F"
Cl       0.00000000       0.00000000       0.00000000       0.00000000       0.00000000      -5.44272375
Cl       0.00000000       0.00000000       1.76868687       0.00000000       0.00000000       5.44272375
2
Properties=species:S:1:pos:R:3:forces:R:3 energy=-3.194800928412591 pbc="F F F"
Cl       0.00000000       0.00000000       0.00000000       0.00000000       0.00000000      -3.61807775
Cl       0.00000000       0.00000000       1.82828283       0.00000000       0.00000000       3.61807775
2
Properties=species:S:1:pos:R:3:forces:R:3 energy=-3.3609670811873964 pbc="F F F"
Cl       0.00000000       0.00000000       0.00000000       0.00000000       0.00000000      -1.98701119
Cl       0.00000000       0.00000000       1.88787879       0.00000000       0.00000000       1.98701119
2
Properties=species:S:1:pos:R:3:forces:R:3 energy=-3.435034277053417 pbc="F F F"
Cl       0.00000000       0.00000000       0.00000000       0.00000000       0.00000000      -0.52793193
Cl       0.00000000       0.00000000       1.94747475       0.00000000       0.00000000       0.52793193
2
Properties=species:S:1:pos:R:3:forces:R:3 energy=-3.427475952910796 pbc="F F F"
Cl       0.00000000       0.00000000       0.00000000       0.00000000       0.00000000       0.75111449
Cl       0.00000000       0.00000000       2.00707071       0.00000000       0.00000000      -0.75111449
2
Properties=species:S:1:pos:R:3:forces:R:3 energy=-3.3491579319557245 pbc="F F F"
Cl       0.00000000       0.00000000       0.00000000       0.00000000       0.00000000       1.84613669
Cl       0.00000000       0.00000000       2.06666667       0.00000000       0.00000000      -1.84613669
2
Properties=species:S:1:pos:R:3:forces:R:3 energy=-3.211345089897188 pbc="F F F"
Cl       0.00000000       0.00000000       0.00000000       0.00000000       0.00000000       2.74286294
Cl       0.00000000       0.00000000       2.12626263       0.00000000       0.00000000      -2.74286294
2
Properties=species:S:1:pos:R:3:forces:R:3 energy=-3.0270747156646802 pbc="F F F"
Cl       0.00000000       0.00000000       0.00000000       0.00000000       0.00000000       3.39514613
Cl       0.00000000       0.00000000       2.18585859       0.00000000       0.00000000      -3.39514613
2
Properties=species:S:1:pos:R:3:forces:R:3 energy=-2.812769759220356 pbc="F F F"
Cl       0.00000000       0.00000000       0.00000000       0.00000000       0.00000000       3.74166322
Cl       0.00000000       0.00000000       2.24545455       0.00000000       0.00000000      -3.74166322
2
Properties=species:S:1:pos:R:3:forces:R:3 energy=-2.5877775034478416 pbc="F F F"
Cl       0.00000000       0.00000000       0.00000000       0.00000000       0.00000000       3.75467277
Cl       0.00000000       0.00000000       2.30505051       0.00000000       0.00000000      -3.75467277
2
Properties=species:S:1:pos:R:3:forces:R:3 energy=-2.370976913625114 pbc="F F F"
Cl       0.00000000       0.00000000       0.00000000       0.00000000       0.00000000       3.48142600
Cl       0.00000000       0.00000000       2.36464646       0.00000000       0.00000000      -3.48142600
2
Properties=species:S:1:pos:R:3:forces:R:3 energy=-2.1762129689921896 pbc="F F F"
Cl       0.00000000       0.00000000       0.00000000       0.00000000       0.00000000       3.03794622
Cl       0.00000000       0.00000000       2.42424242       0.00000000       0.00000000      -3.03794622
2
Properties=species:S:1:pos:R:3:forces:R:3 energy=-2.00959177046931 pbc="F F F"
Cl       0.00000000       0.00000000       0.00000000       0.00000000       0.00000000       2.55721235
Cl       0.00000000       0.00000000       2.48383838       0.00000000       0.00000000      -2.55721235
2
Properties=species:S:1:pos:R:3:forces:R:3 energy=-1.8702278273431043 pbc="F F F"
Cl       0.00000000       0.00000000       0.00000000       0.00000000       0.00000000       2.13405967
Cl       0.00000000       0.00000000       2.54343434       0.00000000       0.00000000      -2.13405967
2
Properties=species:S:1:pos:R:3:forces:R:3 energy=-1.7533350288704064 pbc="F F F"
Cl       0.00000000       0.00000000       0.00000000       0.00000000       0.00000000       1.80476856
Cl       0.00000000       0.00000000       2.60303030       0.00000000       0.00000000      -1.80476856
2
Properties=species:S:1:pos:R:3:forces:R:3 energy=-1.653369951719149 pbc="F F F"
Cl       0.00000000       0.00000000       0.00000000       0.00000000       0.00000000       1.56274939
Cl       0.00000000       0.00000000       2.66262626       0.00000000       0.00000000      -1.56274939
2
Properties=species:S:1:pos:R:3:forces:R:3 energy=-1.565778037034974 pbc="F F F"
Cl       0.00000000       0.00000000       0.00000000       0.00000000       0.00000000       1.38579524
Cl       0.00000000       0.00000000       2.72222222       0.00000000       0.00000000      -1.38579524
2
Properties=species:S:1:pos:R:3:forces:R:3 energy=-1.4873054448106484 pbc="F F F"
Cl       0.00000000       0.00000000       0.00000000       0.00000000       0.00000000       1.25387013
Cl       0.00000000       0.00000000       2.78181818       0.00000000       0.00000000      -1.25387013
2
Properties=species:S:1:pos:R:3:forces:R:3 energy=-1.4157047672682583 pbc="F F F"
Cl       0.00000000       0.00000000       0.00000000       0.00000000       0.00000000       1.15334225
Cl       0.00000000       0.00000000       2.84141414       0.00000000       0.00000000      -1.15334225
2
Properties=species:S:1:pos:R:3:forces:R:3 energy=-1.3494135348104934 pbc="F F F"
Cl       0.00000000       0.00000000       0.00000000       0.00000000       0.00000000       1.07418811
Cl       0.00000000       0.00000000       2.90101010       0.00000000       0.00000000      -1.07418811
2
Properties=species:S:1:pos:R:3:forces:R:3 energy=-1.2874230504911344 pbc="F F F"
Cl       0.00000000       0.00000000       0.00000000       0.00000000       0.00000000       1.00751960
Cl       0.00000000       0.00000000       2.96060606       0.00000000       0.00000000      -1.00751960
2
Properties=species:S:1:pos:R:3:forces:R:3 energy=-1.2292325574589844 pbc="F F F"
Cl       0.00000000       0.00000000       0.00000000       0.00000000       0.00000000       0.94551247
Cl       0.00000000       0.00000000       3.02020202       0.00000000       0.00000000      -0.94551247
2
Properties=species:S:1:pos:R:3:forces:R:3 energy=-1.1747490657329251 pbc="F F F"
Cl       0.00000000       0.00000000       0.00000000       0.00000000       0.00000000       0.88240552
Cl       0.00000000       0.00000000       3.07979798       0.00000000       0.00000000      -0.88240552
2
Properties=species:S:1:pos:R:3:forces:R:3 energy=-1.1241406200777877 pbc="F F F"
Cl       0.00000000       0.00000000       0.00000000       0.00000000       0.00000000       0.81519210
Cl       0.00000000       0.00000000       3.13939394       0.00000000       0.00000000      -0.81519210
2
Properties=species:S:1:pos:R:3:forces:R:3 energy=-1.0776740861756593 pbc="F F F"
Cl       0.00000000       0.00000000       0.00000000       0.00000000       0.00000000       0.74356735
Cl       0.00000000       0.00000000       3.19898990       0.00000000       0.00000000      -0.74356735
2
Properties=species:S:1:pos:R:3:forces:R:3 energy=-1.0355666166030968 pbc="F F F"
Cl       0.00000000       0.00000000       0.00000000       0.00000000       0.00000000       0.66930175
Cl       0.00000000       0.00000000       3.25858586       0.00000000       0.00000000      -0.66930175
2
Properties=species:S:1:pos:R:3:forces:R:3 energy=-0.9978925764704273 pbc="F F F"
Cl       0.00000000       0.00000000       0.00000000       0.00000000       0.00000000       0.59535199
Cl       0.00000000       0.00000000       3.31818182       0.00000000       0.00000000      -0.59535199
2
Properties=species:S:1:pos:R:3:forces:R:3 energy=-0.9645349529649676 pbc="F F F"
Cl       0.00000000       0.00000000       0.00000000       0.00000000       0.00000000       0.52494699
Cl       0.00000000       0.00000000       3.37777778       0.00000000       0.00000000      -0.52494699
2
Properties=species:S:1:pos:R:3:forces:R:3 energy=-0.9351972293466236 pbc="F F F"
Cl       0.00000000       0.00000000       0.00000000       0.00000000       0.00000000       0.46085063
Cl       0.00000000       0.00000000       3.43737374       0.00000000       0.00000000      -0.46085063
2
Properties=species:S:1:pos:R:3:forces:R:3 energy=-0.9094426305626884 pbc="F F F"
Cl       0.00000000       0.00000000       0.00000000       0.00000000       0.00000000       0.40490746
Cl       0.00000000       0.00000000       3.49696970       0.00000000       0.00000000      -0.40490746
2
Properties=species:S:1:pos:R:3:forces:R:3 energy=-0.8867570039801926 pbc="F F F"
Cl       0.00000000       0.00000000       0.00000000       0.00000000       0.00000000       0.35789827
Cl       0.00000000       0.00000000       3.55656566       0.00000000       0.00000000      -0.35789827
2
Properties=species:S:1:pos:R:3:forces:R:3 energy=-0.8666096808959135 pbc="F F F"
Cl       0.00000000       0.00000000       0.00000000       0.00000000       0.00000000       0.31964156
Cl       0.00000000       0.00000000       3.61616162       0.00000000       0.00000000      -0.31964156
2
Properties=species:S:1:pos:R:3:forces:R:3 energy=-0.848502593763474 pbc="F F F"
Cl       0.00000000       0.00000000       0.00000000       0.00000000       0.00000000       0.28921673
Cl       0.00000000       0.00000000       3.67575758       0.00000000       0.00000000      -0.28921673
2
Properties=species:S:1:pos:R:3:forces:R:3 energy=-0.8320091990263165 pbc="F F F"
Cl       0.00000000       0.00000000       0.00000000       0.00000000       0.00000000       0.26524112
Cl       0.00000000       0.00000000       3.73535354       0.00000000       0.00000000      -0.26524112
2
Properties=species:S:1:pos:R:3:forces:R:3 energy=-0.8167916304160927 pbc="F F F"
Cl       0.00000000       0.00000000       0.00000000       0.00000000       0.00000000       0.24612403
Cl       0.00000000       0.00000000       3.79494949       0.00000000       0.00000000      -0.24612403
2
Properties=species:S:1:pos:R:3:forces:R:3 energy=-0.8026081346940842 pbc="F F F"
Cl       0.00000000       0.00000000       0.00000000       0.00000000       0.00000000       0.23028961
Cl       0.00000000       0.00000000       3.85454545       0.00000000       0.00000000      -0.23028961
2
Properties=species:S:1:pos:R:3:forces:R:3 energy=-0.7893051979184075 pbc="F F F"
Cl       0.00000000       0.00000000       0.00000000       0.00000000       0.00000000       0.21637492
Cl       0.00000000       0.00000000       3.91414141       0.00000000       0.00000000      -0.21637492
2
Properties=species:S:1:pos:R:3:forces:R:3 energy=-0.7767996690102938 pbc="F F F"
Cl       0.00000000       0.00000000       0.00000000       0.00000000       0.00000000       0.20338927
Cl       0.00000000       0.00000000       3.97373737       0.00000000       0.00000000      -0.20338927
2
Properties=species:S:1:pos:R:3:forces:R:3 energy=-0.7650546765177573 pbc="F F F"
Cl       0.00000000       0.00000000       0.00000000       0.00000000       0.00000000       0.19082865
Cl       0.00000000       0.00000000       4.03333333       0.00000000       0.00000000      -0.19082865
2
Properties=species:S:1:pos:R:3:forces:R:3 energy=-0.7540461682351208 pbc="F F F"
Cl       0.00000000       0.00000000       0.00000000       0.00000000       0.00000000       0.17870283
Cl       0.00000000       0.00000000       4.09292929       0.00000000       0.00000000      -0.17870283
2
Properties=species:S:1:pos:R:3:forces:R:3 energy=-0.7437373249712969 pbc="F F F"
Cl       0.00000000       0.00000000       0.00000000       0.00000000       0.00000000       0.16745736
Cl       0.00000000       0.00000000       4.15252525       0.00000000       0.00000000      -0.16745736
2
Properties=species:S:1:pos:R:3:forces:R:3 energy=-0.7340556483995478 pbc="F F F"
Cl       0.00000000       0.00000000       0.00000000       0.00000000       0.00000000       0.15778197
Cl       0.00000000       0.00000000       4.21212121       0.00000000       0.00000000      -0.15778197
2
Properties=species:S:1:pos:R:3:forces:R:3 energy=-0.7248860477106478 pbc="F F F"
Cl       0.00000000       0.00000000       0.00000000       0.00000000       0.00000000       0.15035628
Cl       0.00000000       0.00000000       4.27171717       0.00000000       0.00000000      -0.15035628
2
Properties=species:S:1:pos:R:3:forces:R:3 energy=-0.7160808664484695 pbc="F F F"
Cl       0.00000000       0.00000000       0.00000000       0.00000000       0.00000000       0.14560758
Cl       0.00000000       0.00000000       4.33131313       0.00000000       0.00000000      -0.14560758
2
Properties=species:S:1:pos:R:3:forces:R:3 energy=-0.7074767195302103 pbc="F F F"
Cl       0.00000000       0.00000000       0.00000000       0.00000000       0.00000000       0.14357103
Cl       0.00000000       0.00000000       4.39090909       0.00000000       0.00000000      -0.14357103
2
Properties=species:S:1:pos:R:3:forces:R:3 energy=-0.6989210830456265 pbc="F F F"
Cl       0.00000000       0.00000000       0.00000000       0.00000000       0.00000000       0.14389884
Cl       0.00000000       0.00000000       4.45050505       0.00000000       0.00000000      -0.14389884
2
Properties=species:S:1:pos:R:3:forces:R:3 energy=-0.6902901651470651 pbc="F F F"
Cl       0.00000000       0.00000000       0.00000000       0.00000000       0.00000000       0.14598149
Cl       0.00000000       0.00000000       4.51010101       0.00000000       0.00000000      -0.14598149
2
Properties=species:S:1:pos:R:3:forces:R:3 energy=-0.6815005097402819 pbc="F F F"
Cl       0.00000000       0.00000000       0.00000000       0.00000000       0.00000000       0.14910592
Cl       0.00000000       0.00000000       4.56969697       0.00000000       0.00000000      -0.14910592
2
Properties=species:S:1:pos:R:3:forces:R:3 energy=-0.6725107406502716 pbc="F F F"
Cl       0.00000000       0.00000000       0.00000000       0.00000000       0.00000000       0.15259968
Cl       0.00000000       0.00000000       4.62929293       0.00000000       0.00000000      -0.15259968
2
Properties=species:S:1:pos:R:3:forces:R:3 energy=-0.663315980959414 pbc="F F F"
Cl       0.00000000       0.00000000       0.00000000       0.00000000       0.00000000       0.15590248
Cl       0.00000000       0.00000000       4.68888889       0.00000000       0.00000000      -0.15590248
2
Properties=species:S:1:pos:R:3:forces:R:3 energy=-0.6539401665721629 pbc="F F F"
Cl       0.00000000       0.00000000       0.00000000       0.00000000       0.00000000       0.15861182
Cl       0.00000000       0.00000000       4.74848485       0.00000000       0.00000000      -0.15861182
2
Properties=species:S:1:pos:R:3:forces:R:3 energy=-0.6444271059143071 pbc="F F F"
Cl       0.00000000       0.00000000       0.00000000       0.00000000       0.00000000       0.16050172
Cl       0.00000000       0.00000000       4.80808081       0.00000000       0.00000000      -0.16050172
2
Properties=species:S:1:pos:R:3:forces:R:3 energy=-0.6348268397648041 pbc="F F F"
Cl       0.00000000       0.00000000       0.00000000       0.00000000       0.00000000       0.16153358
Cl       0.00000000       0.00000000       4.86767677       0.00000000       0.00000000      -0.16153358
2
Properties=species:S:1:pos:R:3:forces:R:3 energy=-0.6251880738417607 pbc="F F F"
Cl       0.00000000       0.00000000       0.00000000       0.00000000       0.00000000       0.16181985
Cl       0.00000000       0.00000000       4.92727273       0.00000000       0.00000000      -0.16181985
2
Properties=species:S:1:pos:R:3:forces:R:3 energy=-0.6155500935575643 pbc="F F F"
Cl       0.00000000       0.00000000       0.00000000       0.00000000       0.00000000       0.16154918
Cl       0.00000000       0.00000000       4.98686869       0.00000000       0.00000000      -0.16154918
2
Properties=species:S:1:pos:R:3:forces:R:3 energy=-0.605942193315013 pbc="F F F"
Cl       0.00000000       0.00000000       0.00000000       0.00000000       0.00000000       0.16085306
Cl       0.00000000       0.00000000       5.04646465       0.00000000       0.00000000      -0.16085306
2
Properties=species:S:1:pos:R:3:forces:R:3 energy=-0.5963874892246922 pbc="F F F"
Cl       0.00000000       0.00000000       0.00000000       0.00000000       0.00000000       0.15969369
Cl       0.00000000       0.00000000       5.10606061       0.00000000       0.00000000      -0.15969369
2
Properties=species:S:1:pos:R:3:forces:R:3 energy=-0.5869211234682308 pbc="F F F"
Cl       0.00000000       0.00000000       0.00000000       0.00000000       0.00000000       0.15778236
Cl       0.00000000       0.00000000       5.16565657       0.00000000       0.00000000      -0.15778236
2
Properties=species:S:1:pos:R:3:forces:R:3 energy=-0.5776053438774509 pbc="F F F"
Cl       0.00000000       0.00000000       0.00000000       0.00000000       0.00000000       0.15460758
Cl       0.00000000       0.00000000       5.22525253       0.00000000       0.00000000      -0.15460758
2
Properties=species:S:1:pos:R:3:forces:R:3 energy=-0.5685315312842464 pbc="F F F"
Cl       0.00000000       0.00000000       0.00000000       0.00000000       0.00000000       0.14955145
Cl       0.00000000       0.00000000       5.28484848       0.00000000       0.00000000      -0.14955145
2
Properties=species:S:1:pos:R:3:forces:R:3 energy=-0.5598284932777173 pbc="F F F"
Cl       0.00000000       0.00000000       0.00000000       0.00000000       0.00000000       0.14205897
Cl       0.00000000       0.00000000       5.34444444       0.00000000       0.00000000      -0.14205897
2
Properties=species:S:1:pos:R:3:forces:R:3 energy=-0.5516537035093214 pbc="F F F"
Cl       0.00000000       0.00000000       0.00000000       0.00000000       0.00000000       0.13180211
Cl       0.00000000       0.00000000       5.40404040       0.00000000       0.00000000      -0.13180211
2
Properties=species:S:1:pos:R:3:forces:R:3 energy=-0.544171543819653 pbc="F F F"
Cl       0.00000000       0.00000000       0.00000000       0.00000000       0.00000000       0.11880572
Cl       0.00000000       0.00000000       5.46363636       0.00000000       0.00000000      -0.11880572
2
Properties=species:S:1:pos:R:3:forces:R:3 energy=-0.5375427546122958 pbc="F F F"
Cl       0.00000000       0.00000000       0.00000000       0.00000000       0.00000000       0.10343223
Cl       0.00000000       0.00000000       5.52323232       0.00000000       0.00000000      -0.10343223
2
Properties=species:S:1:pos:R:3:forces:R:3 energy=-0.531878838686492 pbc="F F F"
Cl       0.00000000       0.00000000       0.00000000       0.00000000       0.00000000       0.08640938
Cl       0.00000000       0.00000000       5.58282828       0.00000000       0.00000000      -0.08640938
2
Properties=species:S:1:pos:R:3:forces:R:3 energy=-0.5272576701304954 pbc="F F F"
Cl       0.00000000       0.00000000       0.00000000       0.00000000       0.00000000       0.06866232
Cl       0.00000000       0.00000000       5.64242424       0.00000000       0.00000000      -0.06866232
2
Properties=species:S:1:pos:R:3:forces:R:3 energy=-0.5236866028082449 pbc="F F F"
Cl       0.00000000       0.00000000       0.00000000       0.00000000       0.00000000       0.05122595
Cl       0.00000000       0.00000000       5.70202020       0.00000000       0.00000000      -0.05122595
2
Properties=species:S:1:pos:R:3:forces:R:3 energy=-0.5211255935957255 pbc="F F F"
Cl       0.00000000       0.00000000       0.00000000       0.00000000       0.00000000       0.03513518
Cl       0.00000000       0.00000000       5.76161616       0.00000000       0.00000000      -0.03513518
2
Properties=species:S:1:pos:R:3:forces:R:3 energy=-0.5194545925026216 pbc="F F F"
Cl       0.00000000       0.00000000       0.00000000       0.00000000       0.00000000       0.02134867
Cl       0.00000000       0.00000000       5.82121212       0.00000000       0.00000000      -0.02134867
2
Properties=species:S:1:pos:R:3:forces:R:3 energy=-0.5185199765714908 pbc="F F F"
Cl       0.00000000       0.00000000       0.00000000       0.00000000       0.00000000       0.01070115
Cl       0.00000000       0.00000000       5.88080808       0.00000000       0.00000000      -0.01070115
2
Properties=species:S:1:pos:R:3:forces:R:3 energy=-0.5181021196053066 pbc="F F F"
Cl       0.00000000       0.00000000       0.00000000       0.00000000       0.00000000       0.00387480
Cl       0.00000000       0.00000000       5.94040404       0.00000000       0.00000000      -0.00387480
2
Properties=species:S:1:pos:R:3:forces:R:3 energy=-0.5179685592136144 pbc="F F F"
Cl       0.00000000       0.00000000       0.00000000       0.00000000       0.00000000       0.00142215
Cl       0.00000000       0.00000000       6.00000000       0.00000000       0.00000000      -0.00142215
