2
Properties=species:S:1:pos:R:3:forces:R:3 energy=15618.396450810586 pbc="F F F"
Cr       0.00000000       0.00000000       0.00000000       0.00000000       0.00000000 -303458.06250000
Cr       0.00000000       0.00000000       0.10000000       0.00000000       0.00000000  303458.06250000
2
Properties=species:S:1:pos:R:3:forces:R:3 energy=6338.4574859668355 pbc="F F F"
Cr       0.00000000       0.00000000       0.00000000       0.00000000       0.00000000  -72916.02343750
Cr       0.00000000       0.00000000       0.15959596       0.00000000       0.00000000   72916.02343750
2
Properties=species:S:1:pos:R:3:forces:R:3 energy=3744.9137847949605 pbc="F F F"
Cr       0.00000000       0.00000000       0.00000000       0.00000000       0.00000000  -24509.97265625
Cr       0.00000000       0.00000000       0.21919192       0.00000000       0.00000000   24509.97265625
2
Properties=species:S:1:pos:R:3:forces:R:3 energy=2792.3964508137533 pbc="F F F"
Cr       0.00000000       0.00000000       0.00000000       0.00000000       0.00000000   -9997.99316406
Cr       0.00000000       0.00000000       0.27878788       0.00000000       0.00000000    9997.99316406
2
Properties=species:S:1:pos:R:3:forces:R:3 energy=2380.8334625325033 pbc="F F F"
Cr       0.00000000       0.00000000       0.00000000       0.00000000       0.00000000   -4616.83837891
Cr       0.00000000       0.00000000       0.33838384       0.00000000       0.00000000    4616.83837891
2
Properties=species:S:1:pos:R:3:forces:R:3 energy=2182.452114882589 pbc="F F F"
Cr       0.00000000       0.00000000       0.00000000       0.00000000       0.00000000   -2350.96972656
Cr       0.00000000       0.00000000       0.39797980       0.00000000       0.00000000    2350.96972656
2
Properties=species:S:1:pos:R:3:forces:R:3 energy=2075.238491851553 pbc="F F F"
Cr       0.00000000       0.00000000       0.00000000       0.00000000       0.00000000   -1397.80541992
Cr       0.00000000       0.00000000       0.45757576       0.00000000       0.00000000    1397.80541992
2
Properties=species:S:1:pos:R:3:forces:R:3 energy=2001.2979401222508 pbc="F F F"
Cr       0.00000000       0.00000000       0.00000000       0.00000000       0.00000000   -1190.36328125
Cr       0.00000000       0.00000000       0.51717172       0.00000000       0.00000000    1190.36328125
2
Properties=species:S:1:pos:R:3:forces:R:3 energy=1920.8659333369985 pbc="F F F"
Cr       0.00000000       0.00000000       0.00000000       0.00000000       0.00000000   -1616.51574707
Cr       0.00000000       0.00000000       0.57676768       0.00000000       0.00000000    1616.51574707
2
Properties=species:S:1:pos:R:3:forces:R:3 energy=1795.21420002726 pbc="F F F"
Cr       0.00000000       0.00000000       0.00000000       0.00000000       0.00000000   -2714.14916992
Cr       0.00000000       0.00000000       0.63636364       0.00000000       0.00000000    2714.14916992
2
Properties=species:S:1:pos:R:3:forces:R:3 energy=1588.8030673478086 pbc="F F F"
Cr       0.00000000       0.00000000       0.00000000       0.00000000       0.00000000   -3767.77172852
Cr       0.00000000       0.00000000       0.69595960       0.00000000       0.00000000    3767.77172852
2
Properties=species:S:1:pos:R:3:forces:R:3 energy=1313.170377133533 pbc="F F F"
Cr       0.00000000       0.00000000       0.00000000       0.00000000       0.00000000   -5473.53613281
Cr       0.00000000       0.00000000       0.75555556       0.00000000       0.00000000    5473.53613281
2
Properties=species:S:1:pos:R:3:forces:R:3 energy=951.8925454190652 pbc="F F F"
Cr       0.00000000       0.00000000       0.00000000       0.00000000       0.00000000   -6445.88134766
Cr       0.00000000       0.00000000       0.81515152       0.00000000       0.00000000    6445.88134766
2
Properties=species:S:1:pos:R:3:forces:R:3 energy=575.3266889416378 pbc="F F F"
Cr       0.00000000       0.00000000       0.00000000       0.00000000       0.00000000   -5923.20849609
Cr       0.00000000       0.00000000       0.87474747       0.00000000       0.00000000    5923.20849609
2
Properties=species:S:1:pos:R:3:forces:R:3 energy=268.98202406686545 pbc="F F F"
Cr       0.00000000       0.00000000       0.00000000       0.00000000       0.00000000   -4242.46533203
Cr       0.00000000       0.00000000       0.93434343       0.00000000       0.00000000    4242.46533203
2
Properties=species:S:1:pos:R:3:forces:R:3 energy=84.08982067869114 pbc="F F F"
Cr       0.00000000       0.00000000       0.00000000       0.00000000       0.00000000   -1170.63244629
Cr       0.00000000       0.00000000       0.99393939       0.00000000       0.00000000    1170.63244629
2
Properties=species:S:1:pos:R:3:forces:R:3 energy=47.528122987896275 pbc="F F F"
Cr       0.00000000       0.00000000       0.00000000       0.00000000       0.00000000    -471.62982178
Cr       0.00000000       0.00000000       1.05353535       0.00000000       0.00000000     471.62982178
2
Properties=species:S:1:pos:R:3:forces:R:3 energy=25.45189934173078 pbc="F F F"
Cr       0.00000000       0.00000000       0.00000000       0.00000000       0.00000000    -282.41772461
Cr       0.00000000       0.00000000       1.11313131       0.00000000       0.00000000     282.41772461
2
Properties=species:S:1:pos:R:3:forces:R:3 energy=12.223264751043835 pbc="F F F"
Cr       0.00000000       0.00000000       0.00000000       0.00000000       0.00000000    -174.88438416
Cr       0.00000000       0.00000000       1.17272727       0.00000000       0.00000000     174.88438416
2
Properties=species:S:1:pos:R:3:forces:R:3 energy=3.598804457367463 pbc="F F F"
Cr       0.00000000       0.00000000       0.00000000       0.00000000       0.00000000    -118.81667328
Cr       0.00000000       0.00000000       1.23232323       0.00000000       0.00000000     118.81667328
2
Properties=species:S:1:pos:R:3:forces:R:3 energy=-2.2536795144091353 pbc="F F F"
Cr       0.00000000       0.00000000       0.00000000       0.00000000       0.00000000     -79.70294952
Cr       0.00000000       0.00000000       1.29191919       0.00000000       0.00000000      79.70294952
2
Properties=species:S:1:pos:R:3:forces:R:3 energy=-6.139733766453934 pbc="F F F"
Cr       0.00000000       0.00000000       0.00000000       0.00000000       0.00000000     -52.41539764
Cr       0.00000000       0.00000000       1.35151515       0.00000000       0.00000000      52.41539764
2
Properties=species:S:1:pos:R:3:forces:R:3 energy=-8.653610669719772 pbc="F F F"
Cr       0.00000000       0.00000000       0.00000000       0.00000000       0.00000000     -32.99507141
Cr       0.00000000       0.00000000       1.41111111       0.00000000       0.00000000      32.99507141
2
Properties=species:S:1:pos:R:3:forces:R:3 energy=-10.203855496538688 pbc="F F F"
Cr       0.00000000       0.00000000       0.00000000       0.00000000       0.00000000     -20.11689949
Cr       0.00000000       0.00000000       1.47070707       0.00000000       0.00000000      20.11689949
2
Properties=species:S:1:pos:R:3:forces:R:3 energy=-11.1492841403355 pbc="F F F"
Cr       0.00000000       0.00000000       0.00000000       0.00000000       0.00000000     -12.13620090
Cr       0.00000000       0.00000000       1.53030303       0.00000000       0.00000000      12.13620090
2
Properties=species:S:1:pos:R:3:forces:R:3 energy=-11.692945009389609 pbc="F F F"
Cr       0.00000000       0.00000000       0.00000000       0.00000000       0.00000000      -6.38817501
Cr       0.00000000       0.00000000       1.58989899       0.00000000       0.00000000       6.38817501
2
Properties=species:S:1:pos:R:3:forces:R:3 energy=-11.942469596981299 pbc="F F F"
Cr       0.00000000       0.00000000       0.00000000       0.00000000       0.00000000      -2.24915123
Cr       0.00000000       0.00000000       1.64949495       0.00000000       0.00000000       2.24915123
2
Properties=species:S:1:pos:R:3:forces:R:3 energy=-11.991703105815457 pbc="F F F"
Cr       0.00000000       0.00000000       0.00000000       0.00000000       0.00000000       0.35229677
Cr       0.00000000       0.00000000       1.70909091       0.00000000       0.00000000      -0.35229677
2
Properties=species:S:1:pos:R:3:forces:R:3 energy=-11.92691890981732 pbc="F F F"
Cr       0.00000000       0.00000000       0.00000000       0.00000000       0.00000000       1.62789035
Cr       0.00000000       0.00000000       1.76868687       0.00000000       0.00000000      -1.62789035
2
Properties=species:S:1:pos:R:3:forces:R:3 energy=-11.81685957716855 pbc="F F F"
Cr       0.00000000       0.00000000       0.00000000       0.00000000       0.00000000       1.93909681
Cr       0.00000000       0.00000000       1.82828283       0.00000000       0.00000000      -1.93909681
2
Properties=species:S:1:pos:R:3:forces:R:3 energy=-11.706758903743001 pbc="F F F"
Cr       0.00000000       0.00000000       0.00000000       0.00000000       0.00000000       1.69699991
Cr       0.00000000       0.00000000       1.88787879       0.00000000       0.00000000      -1.69699991
2
Properties=species:S:1:pos:R:3:forces:R:3 energy=-11.618216953101015 pbc="F F F"
Cr       0.00000000       0.00000000       0.00000000       0.00000000       0.00000000       1.26732123
Cr       0.00000000       0.00000000       1.94747475       0.00000000       0.00000000      -1.26732123
2
Properties=species:S:1:pos:R:3:forces:R:3 energy=-11.554838828291716 pbc="F F F"
Cr       0.00000000       0.00000000       0.00000000       0.00000000       0.00000000       0.87533569
Cr       0.00000000       0.00000000       2.00707071       0.00000000       0.00000000      -0.87533569
2
Properties=species:S:1:pos:R:3:forces:R:3 energy=-11.511818610408728 pbc="F F F"
Cr       0.00000000       0.00000000       0.00000000       0.00000000       0.00000000       0.58479559
Cr       0.00000000       0.00000000       2.06666667       0.00000000       0.00000000      -0.58479559
2
Properties=species:S:1:pos:R:3:forces:R:3 energy=-11.483406748225473 pbc="F F F"
Cr       0.00000000       0.00000000       0.00000000       0.00000000       0.00000000       0.38213959
Cr       0.00000000       0.00000000       2.12626263       0.00000000       0.00000000      -0.38213959
2
Properties=species:S:1:pos:R:3:forces:R:3 energy=-11.464528572431732 pbc="F F F"
Cr       0.00000000       0.00000000       0.00000000       0.00000000       0.00000000       0.26842898
Cr       0.00000000       0.00000000       2.18585859       0.00000000       0.00000000      -0.26842898
2
Properties=species:S:1:pos:R:3:forces:R:3 energy=-11.449026852835862 pbc="F F F"
Cr       0.00000000       0.00000000       0.00000000       0.00000000       0.00000000       0.27396268
Cr       0.00000000       0.00000000       2.24545455       0.00000000       0.00000000      -0.27396268
2
Properties=species:S:1:pos:R:3:forces:R:3 energy=-11.429362484463999 pbc="F F F"
Cr       0.00000000       0.00000000       0.00000000       0.00000000       0.00000000       0.40287989
Cr       0.00000000       0.00000000       2.30505051       0.00000000       0.00000000      -0.40287989
2
Properties=species:S:1:pos:R:3:forces:R:3 energy=-11.400043458446898 pbc="F F F"
Cr       0.00000000       0.00000000       0.00000000       0.00000000       0.00000000       0.57773679
Cr       0.00000000       0.00000000       2.36464646       0.00000000       0.00000000      -0.57773679
2
Properties=species:S:1:pos:R:3:forces:R:3 energy=-11.362430796038502 pbc="F F F"
Cr       0.00000000       0.00000000       0.00000000       0.00000000       0.00000000       0.65640092
Cr       0.00000000       0.00000000       2.42424242       0.00000000       0.00000000      -0.65640092
2
Properties=species:S:1:pos:R:3:forces:R:3 energy=-11.32609844596282 pbc="F F F"
Cr       0.00000000       0.00000000       0.00000000       0.00000000       0.00000000       0.52300036
Cr       0.00000000       0.00000000       2.48383838       0.00000000       0.00000000      -0.52300036
2
Properties=species:S:1:pos:R:3:forces:R:3 energy=-11.30452459255662 pbc="F F F"
Cr       0.00000000       0.00000000       0.00000000       0.00000000       0.00000000       0.17055979
Cr       0.00000000       0.00000000       2.54343434       0.00000000       0.00000000      -0.17055979
2
Properties=species:S:1:pos:R:3:forces:R:3 energy=-11.308045975559766 pbc="F F F"
Cr       0.00000000       0.00000000       0.00000000       0.00000000       0.00000000      -0.29457235
Cr       0.00000000       0.00000000       2.60303030       0.00000000       0.00000000       0.29457235
2
Properties=species:S:1:pos:R:3:forces:R:3 energy=-11.338683631937407 pbc="F F F"
Cr       0.00000000       0.00000000       0.00000000       0.00000000       0.00000000      -0.71331441
Cr       0.00000000       0.00000000       2.66262626       0.00000000       0.00000000       0.71331441
2
Properties=species:S:1:pos:R:3:forces:R:3 energy=-11.389793963686802 pbc="F F F"
Cr       0.00000000       0.00000000       0.00000000       0.00000000       0.00000000      -0.97183043
Cr       0.00000000       0.00000000       2.72222222       0.00000000       0.00000000       0.97183043
2
Properties=species:S:1:pos:R:3:forces:R:3 energy=-11.451221248792017 pbc="F F F"
Cr       0.00000000       0.00000000       0.00000000       0.00000000       0.00000000      -1.06560564
Cr       0.00000000       0.00000000       2.78181818       0.00000000       0.00000000       1.06560564
2
Properties=species:S:1:pos:R:3:forces:R:3 energy=-11.51432640075727 pbc="F F F"
Cr       0.00000000       0.00000000       0.00000000       0.00000000       0.00000000      -1.03396595
Cr       0.00000000       0.00000000       2.84141414       0.00000000       0.00000000       1.03396595
2
Properties=species:S:1:pos:R:3:forces:R:3 energy=-11.572596375601186 pbc="F F F"
Cr       0.00000000       0.00000000       0.00000000       0.00000000       0.00000000      -0.90878302
Cr       0.00000000       0.00000000       2.90101010       0.00000000       0.00000000       0.90878302
2
Properties=species:S:1:pos:R:3:forces:R:3 energy=-11.621537651999798 pbc="F F F"
Cr       0.00000000       0.00000000       0.00000000       0.00000000       0.00000000      -0.72808051
Cr       0.00000000       0.00000000       2.96060606       0.00000000       0.00000000       0.72808051
2
Properties=species:S:1:pos:R:3:forces:R:3 energy=-11.659153590844873 pbc="F F F"
Cr       0.00000000       0.00000000       0.00000000       0.00000000       0.00000000      -0.53576732
Cr       0.00000000       0.00000000       3.02020202       0.00000000       0.00000000       0.53576732
2
Properties=species:S:1:pos:R:3:forces:R:3 energy=-11.685869174500924 pbc="F F F"
Cr       0.00000000       0.00000000       0.00000000       0.00000000       0.00000000      -0.36654678
Cr       0.00000000       0.00000000       3.07979798       0.00000000       0.00000000       0.36654678
2
Properties=species:S:1:pos:R:3:forces:R:3 energy=-11.703619486043518 pbc="F F F"
Cr       0.00000000       0.00000000       0.00000000       0.00000000       0.00000000      -0.23570852
Cr       0.00000000       0.00000000       3.13939394       0.00000000       0.00000000       0.23570852
2
Properties=species:S:1:pos:R:3:forces:R:3 energy=-11.714659070946011 pbc="F F F"
Cr       0.00000000       0.00000000       0.00000000       0.00000000       0.00000000      -0.13952436
Cr       0.00000000       0.00000000       3.19898990       0.00000000       0.00000000       0.13952436
2
Properties=species:S:1:pos:R:3:forces:R:3 energy=-11.720649030454636 pbc="F F F"
Cr       0.00000000       0.00000000       0.00000000       0.00000000       0.00000000      -0.06341948
Cr       0.00000000       0.00000000       3.25858586       0.00000000       0.00000000       0.06341948
2
Properties=species:S:1:pos:R:3:forces:R:3 energy=-11.722303860349085 pbc="F F F"
Cr       0.00000000       0.00000000       0.00000000       0.00000000       0.00000000       0.00816636
Cr       0.00000000       0.00000000       3.31818182       0.00000000       0.00000000      -0.00816636
2
Properties=species:S:1:pos:R:3:forces:R:3 energy=-11.719562662169007 pbc="F F F"
Cr       0.00000000       0.00000000       0.00000000       0.00000000       0.00000000       0.08515327
Cr       0.00000000       0.00000000       3.37777778       0.00000000       0.00000000      -0.08515327
2
Properties=species:S:1:pos:R:3:forces:R:3 energy=-11.711994809594572 pbc="F F F"
Cr       0.00000000       0.00000000       0.00000000       0.00000000       0.00000000       0.17000452
Cr       0.00000000       0.00000000       3.43737374       0.00000000       0.00000000      -0.17000452
2
Properties=species:S:1:pos:R:3:forces:R:3 energy=-11.699206498809247 pbc="F F F"
Cr       0.00000000       0.00000000       0.00000000       0.00000000       0.00000000       0.25946894
Cr       0.00000000       0.00000000       3.49696970       0.00000000       0.00000000      -0.25946894
2
Properties=species:S:1:pos:R:3:forces:R:3 energy=-11.681095537933382 pbc="F F F"
Cr       0.00000000       0.00000000       0.00000000       0.00000000       0.00000000       0.34751683
Cr       0.00000000       0.00000000       3.55656566       0.00000000       0.00000000      -0.34751683
2
Properties=species:S:1:pos:R:3:forces:R:3 energy=-11.657941100115917 pbc="F F F"
Cr       0.00000000       0.00000000       0.00000000       0.00000000       0.00000000       0.42774671
Cr       0.00000000       0.00000000       3.61616162       0.00000000       0.00000000      -0.42774671
2
Properties=species:S:1:pos:R:3:forces:R:3 energy=-11.630377153702037 pbc="F F F"
Cr       0.00000000       0.00000000       0.00000000       0.00000000       0.00000000       0.49466074
Cr       0.00000000       0.00000000       3.67575758       0.00000000       0.00000000      -0.49466074
2
Properties=species:S:1:pos:R:3:forces:R:3 energy=-11.5993295197283 pbc="F F F"
Cr       0.00000000       0.00000000       0.00000000       0.00000000       0.00000000       0.54412061
Cr       0.00000000       0.00000000       3.73535354       0.00000000       0.00000000      -0.54412061
2
Properties=species:S:1:pos:R:3:forces:R:3 energy=-11.56592163556335 pbc="F F F"
Cr       0.00000000       0.00000000       0.00000000       0.00000000       0.00000000       0.57353920
Cr       0.00000000       0.00000000       3.79494949       0.00000000       0.00000000      -0.57353920
2
Properties=species:S:1:pos:R:3:forces:R:3 energy=-11.531384922193464 pbc="F F F"
Cr       0.00000000       0.00000000       0.00000000       0.00000000       0.00000000       0.58200377
Cr       0.00000000       0.00000000       3.85454545       0.00000000       0.00000000      -0.58200377
2
Properties=species:S:1:pos:R:3:forces:R:3 energy=-11.496952894695204 pbc="F F F"
Cr       0.00000000       0.00000000       0.00000000       0.00000000       0.00000000       0.57034087
Cr       0.00000000       0.00000000       3.91414141       0.00000000       0.00000000      -0.57034087
2
Properties=species:S:1:pos:R:3:forces:R:3 energy=-11.463758108388456 pbc="F F F"
Cr       0.00000000       0.00000000       0.00000000       0.00000000       0.00000000       0.54094774
Cr       0.00000000       0.00000000       3.97373737       0.00000000       0.00000000      -0.54094774
2
Properties=species:S:1:pos:R:3:forces:R:3 energy=-11.432757835596187 pbc="F F F"
Cr       0.00000000       0.00000000       0.00000000       0.00000000       0.00000000       0.49738607
Cr       0.00000000       0.00000000       4.03333333       0.00000000       0.00000000      -0.49738607
2
Properties=species:S:1:pos:R:3:forces:R:3 energy=-11.404672834083222 pbc="F F F"
Cr       0.00000000       0.00000000       0.00000000       0.00000000       0.00000000       0.44381121
Cr       0.00000000       0.00000000       4.09292929       0.00000000       0.00000000      -0.44381121
2
Properties=species:S:1:pos:R:3:forces:R:3 energy=-11.379974822577248 pbc="F F F"
Cr       0.00000000       0.00000000       0.00000000       0.00000000       0.00000000       0.38439897
Cr       0.00000000       0.00000000       4.15252525       0.00000000       0.00000000      -0.38439897
2
Properties=species:S:1:pos:R:3:forces:R:3 energy=-11.358896838137762 pbc="F F F"
Cr       0.00000000       0.00000000       0.00000000       0.00000000       0.00000000       0.32291660
Cr       0.00000000       0.00000000       4.21212121       0.00000000       0.00000000      -0.32291660
2
Properties=species:S:1:pos:R:3:forces:R:3 energy=-11.341464447647096 pbc="F F F"
Cr       0.00000000       0.00000000       0.00000000       0.00000000       0.00000000       0.26247987
Cr       0.00000000       0.00000000       4.27171717       0.00000000       0.00000000      -0.26247987
2
Properties=species:S:1:pos:R:3:forces:R:3 energy=-11.327540481804267 pbc="F F F"
Cr       0.00000000       0.00000000       0.00000000       0.00000000       0.00000000       0.20555177
Cr       0.00000000       0.00000000       4.33131313       0.00000000       0.00000000      -0.20555177
2
Properties=species:S:1:pos:R:3:forces:R:3 energy=-11.31685619276303 pbc="F F F"
Cr       0.00000000       0.00000000       0.00000000       0.00000000       0.00000000       0.15404041
Cr       0.00000000       0.00000000       4.39090909       0.00000000       0.00000000      -0.15404041
2
Properties=species:S:1:pos:R:3:forces:R:3 energy=-11.30904158480849 pbc="F F F"
Cr       0.00000000       0.00000000       0.00000000       0.00000000       0.00000000       0.10947585
Cr       0.00000000       0.00000000       4.45050505       0.00000000       0.00000000      -0.10947585
2
Properties=species:S:1:pos:R:3:forces:R:3 energy=-11.303645279958827 pbc="F F F"
Cr       0.00000000       0.00000000       0.00000000       0.00000000       0.00000000       0.07311055
Cr       0.00000000       0.00000000       4.51010101       0.00000000       0.00000000      -0.07311055
2
Properties=species:S:1:pos:R:3:forces:R:3 energy=-11.300145657946151 pbc="F F F"
Cr       0.00000000       0.00000000       0.00000000       0.00000000       0.00000000       0.04591903
Cr       0.00000000       0.00000000       4.56969697       0.00000000       0.00000000      -0.04591903
2
Properties=species:S:1:pos:R:3:forces:R:3 energy=-11.297977584439957 pbc="F F F"
Cr       0.00000000       0.00000000       0.00000000       0.00000000       0.00000000       0.02848515
Cr       0.00000000       0.00000000       4.62929293       0.00000000       0.00000000      -0.02848515
2
Properties=species:S:1:pos:R:3:forces:R:3 energy=-11.296555983640136 pbc="F F F"
Cr       0.00000000       0.00000000       0.00000000       0.00000000       0.00000000       0.02080196
Cr       0.00000000       0.00000000       4.68888889       0.00000000       0.00000000      -0.02080196
2
Properties=species:S:1:pos:R:3:forces:R:3 energy=-11.295318737782116 pbc="F F F"
Cr       0.00000000       0.00000000       0.00000000       0.00000000       0.00000000       0.02210455
Cr       0.00000000       0.00000000       4.74848485       0.00000000       0.00000000      -0.02210455
2
Properties=species:S:1:pos:R:3:forces:R:3 energy=-11.29377326512289 pbc="F F F"
Cr       0.00000000       0.00000000       0.00000000       0.00000000       0.00000000       0.03081884
Cr       0.00000000       0.00000000       4.80808081       0.00000000       0.00000000      -0.03081884
2
Properties=species:S:1:pos:R:3:forces:R:3 energy=-11.291542391342881 pbc="F F F"
Cr       0.00000000       0.00000000       0.00000000       0.00000000       0.00000000       0.04470214
Cr       0.00000000       0.00000000       4.86767677       0.00000000       0.00000000      -0.04470214
2
Properties=species:S:1:pos:R:3:forces:R:3 energy=-11.28839481010326 pbc="F F F"
Cr       0.00000000       0.00000000       0.00000000       0.00000000       0.00000000       0.06114817
Cr       0.00000000       0.00000000       4.92727273       0.00000000       0.00000000      -0.06114817
2
Properties=species:S:1:pos:R:3:forces:R:3 energy=-11.284254645131684 pbc="F F F"
Cr       0.00000000       0.00000000       0.00000000       0.00000000       0.00000000       0.07758322
Cr       0.00000000       0.00000000       4.98686869       0.00000000       0.00000000      -0.07758322
2
Properties=species:S:1:pos:R:3:forces:R:3 energy=-11.27919199584252 pbc="F F F"
Cr       0.00000000       0.00000000       0.00000000       0.00000000       0.00000000       0.09182172
Cr       0.00000000       0.00000000       5.04646465       0.00000000       0.00000000      -0.09182172
2
Properties=species:S:1:pos:R:3:forces:R:3 energy=-11.273385718695922 pbc="F F F"
Cr       0.00000000       0.00000000       0.00000000       0.00000000       0.00000000       0.10231479
Cr       0.00000000       0.00000000       5.10606061       0.00000000       0.00000000      -0.10231479
2
Properties=species:S:1:pos:R:3:forces:R:3 energy=-11.267087396650057 pbc="F F F"
Cr       0.00000000       0.00000000       0.00000000       0.00000000       0.00000000       0.10822305
Cr       0.00000000       0.00000000       5.16565657       0.00000000       0.00000000      -0.10822305
2
Properties=species:S:1:pos:R:3:forces:R:3 energy=-11.260580334333348 pbc="F F F"
Cr       0.00000000       0.00000000       0.00000000       0.00000000       0.00000000       0.10939234
Cr       0.00000000       0.00000000       5.22525253       0.00000000       0.00000000      -0.10939234
2
Properties=species:S:1:pos:R:3:forces:R:3 energy=-11.2541357618858 pbc="F F F"
Cr       0.00000000       0.00000000       0.00000000       0.00000000       0.00000000       0.10623304
Cr       0.00000000       0.00000000       5.28484848       0.00000000       0.00000000      -0.10623304
2
Properties=species:S:1:pos:R:3:forces:R:3 energy=-11.24798818673053 pbc="F F F"
Cr       0.00000000       0.00000000       0.00000000       0.00000000       0.00000000       0.09954295
Cr       0.00000000       0.00000000       5.34444444       0.00000000       0.00000000      -0.09954295
2
Properties=species:S:1:pos:R:3:forces:R:3 energy=-11.242321121721126 pbc="F F F"
Cr       0.00000000       0.00000000       0.00000000       0.00000000       0.00000000       0.09031905
Cr       0.00000000       0.00000000       5.40404040       0.00000000       0.00000000      -0.09031905
2
Properties=species:S:1:pos:R:3:forces:R:3 energy=-11.237251935642478 pbc="F F F"
Cr       0.00000000       0.00000000       0.00000000       0.00000000       0.00000000       0.07959515
Cr       0.00000000       0.00000000       5.46363636       0.00000000       0.00000000      -0.07959515
2
Properties=species:S:1:pos:R:3:forces:R:3 energy=-11.232846207426741 pbc="F F F"
Cr       0.00000000       0.00000000       0.00000000       0.00000000       0.00000000       0.06828758
Cr       0.00000000       0.00000000       5.52323232       0.00000000       0.00000000      -0.06828758
2
Properties=species:S:1:pos:R:3:forces:R:3 energy=-11.22911019654522 pbc="F F F"
Cr       0.00000000       0.00000000       0.00000000       0.00000000       0.00000000       0.05714140
Cr       0.00000000       0.00000000       5.58282828       0.00000000       0.00000000      -0.05714140
2
Properties=species:S:1:pos:R:3:forces:R:3 energy=-11.22602135741866 pbc="F F F"
Cr       0.00000000       0.00000000       0.00000000       0.00000000       0.00000000       0.04668282
Cr       0.00000000       0.00000000       5.64242424       0.00000000       0.00000000      -0.04668282
2
Properties=species:S:1:pos:R:3:forces:R:3 energy=-11.22352464509723 pbc="F F F"
Cr       0.00000000       0.00000000       0.00000000       0.00000000       0.00000000       0.03725366
Cr       0.00000000       0.00000000       5.70202020       0.00000000       0.00000000      -0.03725366
2
Properties=species:S:1:pos:R:3:forces:R:3 energy=-11.221556369789724 pbc="F F F"
Cr       0.00000000       0.00000000       0.00000000       0.00000000       0.00000000       0.02907492
Cr       0.00000000       0.00000000       5.76161616       0.00000000       0.00000000      -0.02907492
2
Properties=species:S:1:pos:R:3:forces:R:3 energy=-11.220031813352636 pbc="F F F"
Cr       0.00000000       0.00000000       0.00000000       0.00000000       0.00000000       0.02229073
Cr       0.00000000       0.00000000       5.82121212       0.00000000       0.00000000      -0.02229073
2
Properties=species:S:1:pos:R:3:forces:R:3 energy=-11.218869155095366 pbc="F F F"
Cr       0.00000000       0.00000000       0.00000000       0.00000000       0.00000000       0.01704093
Cr       0.00000000       0.00000000       5.88080808       0.00000000       0.00000000      -0.01704093
2
Properties=species:S:1:pos:R:3:forces:R:3 energy=-11.217967507176635 pbc="F F F"
Cr       0.00000000       0.00000000       0.00000000       0.00000000       0.00000000       0.01347069
Cr       0.00000000       0.00000000       5.94040404       0.00000000       0.00000000      -0.01347069
2
Properties=species:S:1:pos:R:3:forces:R:3 energy=-11.217226054615065 pbc="F F F"
Cr       0.00000000       0.00000000       0.00000000       0.00000000       0.00000000       0.01175158
Cr       0.00000000       0.00000000       6.00000000       0.00000000       0.00000000      -0.01175158
