2
Properties=species:S:1:pos:R:3:forces:R:3 energy=51613.90093933425 pbc="F F F"
Cs       0.00000000       0.00000000       0.00000000       0.00000000       0.00000000 -1259129.25000000
Cs       0.00000000       0.00000000       0.10000000       0.00000000       0.00000000 1259129.25000000
2
Properties=species:S:1:pos:R:3:forces:R:3 energy=14841.70172058425 pbc="F F F"
Cs       0.00000000       0.00000000       0.00000000       0.00000000       0.00000000 -270258.87500000
Cs       0.00000000       0.00000000       0.15959596       0.00000000       0.00000000  270258.87500000
2
Properties=species:S:1:pos:R:3:forces:R:3 energy=5558.91558777175 pbc="F F F"
Cs       0.00000000       0.00000000       0.00000000       0.00000000       0.00000000  -83690.75000000
Cs       0.00000000       0.00000000       0.21919192       0.00000000       0.00000000   83690.75000000
2
Properties=species:S:1:pos:R:3:forces:R:3 energy=2406.71148620925 pbc="F F F"
Cs       0.00000000       0.00000000       0.00000000       0.00000000       0.00000000  -31704.35742188
Cs       0.00000000       0.00000000       0.27878788       0.00000000       0.00000000   31704.35742188
2
Properties=species:S:1:pos:R:3:forces:R:3 energy=1144.0404657014376 pbc="F F F"
Cs       0.00000000       0.00000000       0.00000000       0.00000000       0.00000000  -13547.15429688
Cs       0.00000000       0.00000000       0.33838384       0.00000000       0.00000000   13547.15429688
2
Properties=species:S:1:pos:R:3:forces:R:3 energy=584.1953729280001 pbc="F F F"
Cs       0.00000000       0.00000000       0.00000000       0.00000000       0.00000000   -6271.42187500
Cs       0.00000000       0.00000000       0.39797980       0.00000000       0.00000000    6271.42187500
2
Properties=species:S:1:pos:R:3:forces:R:3 energy=317.7549432405001 pbc="F F F"
Cs       0.00000000       0.00000000       0.00000000       0.00000000       0.00000000   -3084.31811523
Cs       0.00000000       0.00000000       0.45757576       0.00000000       0.00000000    3084.31811523
2
Properties=species:S:1:pos:R:3:forces:R:3 energy=183.67355286043266 pbc="F F F"
Cs       0.00000000       0.00000000       0.00000000       0.00000000       0.00000000   -1595.30444336
Cs       0.00000000       0.00000000       0.51717172       0.00000000       0.00000000    1595.30444336
2
Properties=species:S:1:pos:R:3:forces:R:3 energy=112.90959106923242 pbc="F F F"
Cs       0.00000000       0.00000000       0.00000000       0.00000000       0.00000000    -862.33044434
Cs       0.00000000       0.00000000       0.57676768       0.00000000       0.00000000     862.33044434
2
Properties=species:S:1:pos:R:3:forces:R:3 energy=73.96794830958586 pbc="F F F"
Cs       0.00000000       0.00000000       0.00000000       0.00000000       0.00000000    -484.53329468
Cs       0.00000000       0.00000000       0.63636364       0.00000000       0.00000000     484.53329468
2
Properties=species:S:1:pos:R:3:forces:R:3 energy=51.74549424091681 pbc="F F F"
Cs       0.00000000       0.00000000       0.00000000       0.00000000       0.00000000    -281.40386963
Cs       0.00000000       0.00000000       0.69595960       0.00000000       0.00000000     281.40386963
2
Properties=species:S:1:pos:R:3:forces:R:3 energy=38.674514172855105 pbc="F F F"
Cs       0.00000000       0.00000000       0.00000000       0.00000000       0.00000000    -167.82904053
Cs       0.00000000       0.00000000       0.75555556       0.00000000       0.00000000     167.82904053
2
Properties=species:S:1:pos:R:3:forces:R:3 energy=30.805413606928123 pbc="F F F"
Cs       0.00000000       0.00000000       0.00000000       0.00000000       0.00000000    -102.02212524
Cs       0.00000000       0.00000000       0.81515152       0.00000000       0.00000000     102.02212524
2
Properties=species:S:1:pos:R:3:forces:R:3 energy=25.994496715796824 pbc="F F F"
Cs       0.00000000       0.00000000       0.00000000       0.00000000       0.00000000     -62.69753647
Cs       0.00000000       0.00000000       0.87474747       0.00000000       0.00000000      62.69753647
2
Properties=species:S:1:pos:R:3:forces:R:3 energy=23.032159233779673 pbc="F F F"
Cs       0.00000000       0.00000000       0.00000000       0.00000000       0.00000000     -38.64674377
Cs       0.00000000       0.00000000       0.93434343       0.00000000       0.00000000      38.64674377
2
Properties=species:S:1:pos:R:3:forces:R:3 energy=21.20700399223203 pbc="F F F"
Cs       0.00000000       0.00000000       0.00000000       0.00000000       0.00000000     -23.79930496
Cs       0.00000000       0.00000000       0.99393939       0.00000000       0.00000000      23.79930496
2
Properties=species:S:1:pos:R:3:forces:R:3 energy=20.080268327150925 pbc="F F F"
Cs       0.00000000       0.00000000       0.00000000       0.00000000       0.00000000     -14.79745674
Cs       0.00000000       0.00000000       1.05353535       0.00000000       0.00000000      14.79745674
2
Properties=species:S:1:pos:R:3:forces:R:3 energy=19.365134690253047 pbc="F F F"
Cs       0.00000000       0.00000000       0.00000000       0.00000000       0.00000000      -9.75385857
Cs       0.00000000       0.00000000       1.11313131       0.00000000       0.00000000       9.75385857
2
Properties=species:S:1:pos:R:3:forces:R:3 energy=18.860955728996334 pbc="F F F"
Cs       0.00000000       0.00000000       0.00000000       0.00000000       0.00000000      -7.57859945
Cs       0.00000000       0.00000000       1.17272727       0.00000000       0.00000000       7.57859945
2
Properties=species:S:1:pos:R:3:forces:R:3 energy=18.41859204145977 pbc="F F F"
Cs       0.00000000       0.00000000       0.00000000       0.00000000       0.00000000      -7.58439636
Cs       0.00000000       0.00000000       1.23232323       0.00000000       0.00000000       7.58439636
2
Properties=species:S:1:pos:R:3:forces:R:3 energy=17.924283635512392 pbc="F F F"
Cs       0.00000000       0.00000000       0.00000000       0.00000000       0.00000000      -9.23482513
Cs       0.00000000       0.00000000       1.29191919       0.00000000       0.00000000       9.23482513
2
Properties=species:S:1:pos:R:3:forces:R:3 energy=17.29597255985725 pbc="F F F"
Cs       0.00000000       0.00000000       0.00000000       0.00000000       0.00000000     -11.98565865
Cs       0.00000000       0.00000000       1.35151515       0.00000000       0.00000000      11.98565865
2
Properties=species:S:1:pos:R:3:forces:R:3 energy=16.48612387978695 pbc="F F F"
Cs       0.00000000       0.00000000       0.00000000       0.00000000       0.00000000     -15.21758842
Cs       0.00000000       0.00000000       1.41111111       0.00000000       0.00000000      15.21758842
2
Properties=species:S:1:pos:R:3:forces:R:3 energy=15.485555619775077 pbc="F F F"
Cs       0.00000000       0.00000000       0.00000000       0.00000000       0.00000000     -18.28129005
Cs       0.00000000       0.00000000       1.47070707       0.00000000       0.00000000      18.28129005
2
Properties=species:S:1:pos:R:3:forces:R:3 energy=14.321211945826755 pbc="F F F"
Cs       0.00000000       0.00000000       0.00000000       0.00000000       0.00000000     -20.64629745
Cs       0.00000000       0.00000000       1.53030303       0.00000000       0.00000000      20.64629745
2
Properties=species:S:1:pos:R:3:forces:R:3 energy=13.043729157365444 pbc="F F F"
Cs       0.00000000       0.00000000       0.00000000       0.00000000       0.00000000     -22.06464767
Cs       0.00000000       0.00000000       1.58989899       0.00000000       0.00000000      22.06464767
2
Properties=species:S:1:pos:R:3:forces:R:3 energy=11.708540530874394 pbc="F F F"
Cs       0.00000000       0.00000000       0.00000000       0.00000000       0.00000000     -22.62158966
Cs       0.00000000       0.00000000       1.64949495       0.00000000       0.00000000      22.62158966
2
Properties=species:S:1:pos:R:3:forces:R:3 energy=10.358482265127094 pbc="F F F"
Cs       0.00000000       0.00000000       0.00000000       0.00000000       0.00000000     -22.62222099
Cs       0.00000000       0.00000000       1.70909091       0.00000000       0.00000000      22.62222099
2
Properties=species:S:1:pos:R:3:forces:R:3 energy=9.01672674579118 pbc="F F F"
Cs       0.00000000       0.00000000       0.00000000       0.00000000       0.00000000     -22.38665390
Cs       0.00000000       0.00000000       1.76868687       0.00000000       0.00000000      22.38665390
2
Properties=species:S:1:pos:R:3:forces:R:3 energy=7.691822242897183 pbc="F F F"
Cs       0.00000000       0.00000000       0.00000000       0.00000000       0.00000000     -22.05844307
Cs       0.00000000       0.00000000       1.82828283       0.00000000       0.00000000      22.05844307
2
Properties=species:S:1:pos:R:3:forces:R:3 energy=6.391810148576462 pbc="F F F"
Cs       0.00000000       0.00000000       0.00000000       0.00000000       0.00000000     -21.50784492
Cs       0.00000000       0.00000000       1.88787879       0.00000000       0.00000000      21.50784492
2
Properties=species:S:1:pos:R:3:forces:R:3 energy=5.139526206214697 pbc="F F F"
Cs       0.00000000       0.00000000       0.00000000       0.00000000       0.00000000     -20.39091873
Cs       0.00000000       0.00000000       1.94747475       0.00000000       0.00000000      20.39091873
2
Properties=species:S:1:pos:R:3:forces:R:3 energy=3.9793541943340562 pbc="F F F"
Cs       0.00000000       0.00000000       0.00000000       0.00000000       0.00000000     -18.37940598
Cs       0.00000000       0.00000000       2.00707071       0.00000000       0.00000000      18.37940598
2
Properties=species:S:1:pos:R:3:forces:R:3 energy=2.9674095136841117 pbc="F F F"
Cs       0.00000000       0.00000000       0.00000000       0.00000000       0.00000000     -15.44879627
Cs       0.00000000       0.00000000       2.06666667       0.00000000       0.00000000      15.44879627
2
Properties=species:S:1:pos:R:3:forces:R:3 energy=2.1485380035370185 pbc="F F F"
Cs       0.00000000       0.00000000       0.00000000       0.00000000       0.00000000     -11.99553680
Cs       0.00000000       0.00000000       2.12626263       0.00000000       0.00000000      11.99553680
2
Properties=species:S:1:pos:R:3:forces:R:3 energy=1.5353591759156888 pbc="F F F"
Cs       0.00000000       0.00000000       0.00000000       0.00000000       0.00000000      -8.65319824
Cs       0.00000000       0.00000000       2.18585859       0.00000000       0.00000000       8.65319824
2
Properties=species:S:1:pos:R:3:forces:R:3 energy=1.1039789790400314 pbc="F F F"
Cs       0.00000000       0.00000000       0.00000000       0.00000000       0.00000000      -5.96269989
Cs       0.00000000       0.00000000       2.24545455       0.00000000       0.00000000       5.96269989
2
Properties=species:S:1:pos:R:3:forces:R:3 energy=0.8066740837596242 pbc="F F F"
Cs       0.00000000       0.00000000       0.00000000       0.00000000       0.00000000      -4.16723871
Cs       0.00000000       0.00000000       2.30505051       0.00000000       0.00000000       4.16723871
2
Properties=species:S:1:pos:R:3:forces:R:3 energy=0.5903107296924046 pbc="F F F"
Cs       0.00000000       0.00000000       0.00000000       0.00000000       0.00000000      -3.22014785
Cs       0.00000000       0.00000000       2.36464646       0.00000000       0.00000000       3.22014785
2
Properties=species:S:1:pos:R:3:forces:R:3 energy=0.4103542589534107 pbc="F F F"
Cs       0.00000000       0.00000000       0.00000000       0.00000000       0.00000000      -2.90075469
Cs       0.00000000       0.00000000       2.42424242       0.00000000       0.00000000       2.90075469
2
Properties=species:S:1:pos:R:3:forces:R:3 energy=0.2376038489277305 pbc="F F F"
Cs       0.00000000       0.00000000       0.00000000       0.00000000       0.00000000      -2.93317699
Cs       0.00000000       0.00000000       2.48383838       0.00000000       0.00000000       2.93317699
2
Properties=species:S:1:pos:R:3:forces:R:3 energy=0.058544658095746036 pbc="F F F"
Cs       0.00000000       0.00000000       0.00000000       0.00000000       0.00000000      -3.07968116
Cs       0.00000000       0.00000000       2.54343434       0.00000000       0.00000000       3.07968116
2
Properties=species:S:1:pos:R:3:forces:R:3 energy=-0.1287835421446665 pbc="F F F"
Cs       0.00000000       0.00000000       0.00000000       0.00000000       0.00000000      -3.19482446
Cs       0.00000000       0.00000000       2.60303030       0.00000000       0.00000000       3.19482446
2
Properties=species:S:1:pos:R:3:forces:R:3 energy=-0.320481243016029 pbc="F F F"
Cs       0.00000000       0.00000000       0.00000000       0.00000000       0.00000000      -3.22250628
Cs       0.00000000       0.00000000       2.66262626       0.00000000       0.00000000       3.22250628
2
Properties=species:S:1:pos:R:3:forces:R:3 energy=-0.5110637156590061 pbc="F F F"
Cs       0.00000000       0.00000000       0.00000000       0.00000000       0.00000000      -3.15928578
Cs       0.00000000       0.00000000       2.72222222       0.00000000       0.00000000       3.15928578
2
Properties=species:S:1:pos:R:3:forces:R:3 energy=-0.6955525695038075 pbc="F F F"
Cs       0.00000000       0.00000000       0.00000000       0.00000000       0.00000000      -3.02108669
Cs       0.00000000       0.00000000       2.78181818       0.00000000       0.00000000       3.02108669
2
Properties=species:S:1:pos:R:3:forces:R:3 energy=-0.8700155790126237 pbc="F F F"
Cs       0.00000000       0.00000000       0.00000000       0.00000000       0.00000000      -2.82539511
Cs       0.00000000       0.00000000       2.84141414       0.00000000       0.00000000       2.82539511
2
Properties=species:S:1:pos:R:3:forces:R:3 energy=-1.0314322249584853 pbc="F F F"
Cs       0.00000000       0.00000000       0.00000000       0.00000000       0.00000000      -2.58500338
Cs       0.00000000       0.00000000       2.90101010       0.00000000       0.00000000       2.58500338
2
Properties=species:S:1:pos:R:3:forces:R:3 energy=-1.1773971621094605 pbc="F F F"
Cs       0.00000000       0.00000000       0.00000000       0.00000000       0.00000000      -2.30779338
Cs       0.00000000       0.00000000       2.96060606       0.00000000       0.00000000       2.30779338
2
Properties=species:S:1:pos:R:3:forces:R:3 energy=-1.3058686327747928 pbc="F F F"
Cs       0.00000000       0.00000000       0.00000000       0.00000000       0.00000000      -1.99866259
Cs       0.00000000       0.00000000       3.02020202       0.00000000       0.00000000       1.99866259
2
Properties=species:S:1:pos:R:3:forces:R:3 energy=-1.4150627178696458 pbc="F F F"
Cs       0.00000000       0.00000000       0.00000000       0.00000000       0.00000000      -1.66141331
Cs       0.00000000       0.00000000       3.07979798       0.00000000       0.00000000       1.66141331
2
Properties=species:S:1:pos:R:3:forces:R:3 energy=-1.5034243817290318 pbc="F F F"
Cs       0.00000000       0.00000000       0.00000000       0.00000000       0.00000000      -1.30044580
Cs       0.00000000       0.00000000       3.13939394       0.00000000       0.00000000       1.30044580
2
Properties=species:S:1:pos:R:3:forces:R:3 energy=-1.569718303250805 pbc="F F F"
Cs       0.00000000       0.00000000       0.00000000       0.00000000       0.00000000      -0.92212921
Cs       0.00000000       0.00000000       3.19898990       0.00000000       0.00000000       0.92212921
2
Properties=species:S:1:pos:R:3:forces:R:3 energy=-1.613179795648189 pbc="F F F"
Cs       0.00000000       0.00000000       0.00000000       0.00000000       0.00000000      -0.53618526
Cs       0.00000000       0.00000000       3.25858586       0.00000000       0.00000000       0.53618526
2
Properties=species:S:1:pos:R:3:forces:R:3 energy=-1.6337517889737134 pbc="F F F"
Cs       0.00000000       0.00000000       0.00000000       0.00000000       0.00000000      -0.15667544
Cs       0.00000000       0.00000000       3.31818182       0.00000000       0.00000000       0.15667544
2
Properties=species:S:1:pos:R:3:forces:R:3 energy=-1.6323442453723886 pbc="F F F"
Cs       0.00000000       0.00000000       0.00000000       0.00000000       0.00000000       0.19808622
Cs       0.00000000       0.00000000       3.37777778       0.00000000       0.00000000      -0.19808622
2
Properties=species:S:1:pos:R:3:forces:R:3 energy=-1.6110444300132736 pbc="F F F"
Cs       0.00000000       0.00000000       0.00000000       0.00000000       0.00000000       0.50749797
Cs       0.00000000       0.00000000       3.43737374       0.00000000       0.00000000      -0.50749797
2
Properties=species:S:1:pos:R:3:forces:R:3 energy=-1.5731336106854334 pbc="F F F"
Cs       0.00000000       0.00000000       0.00000000       0.00000000       0.00000000       0.75278014
Cs       0.00000000       0.00000000       3.49696970       0.00000000       0.00000000      -0.75278014
2
Properties=species:S:1:pos:R:3:forces:R:3 energy=-1.5228402890248827 pbc="F F F"
Cs       0.00000000       0.00000000       0.00000000       0.00000000       0.00000000       0.92179269
Cs       0.00000000       0.00000000       3.55656566       0.00000000       0.00000000      -0.92179269
2
Properties=species:S:1:pos:R:3:forces:R:3 energy=-1.4648309582285113 pbc="F F F"
Cs       0.00000000       0.00000000       0.00000000       0.00000000       0.00000000       1.01224220
Cs       0.00000000       0.00000000       3.61616162       0.00000000       0.00000000      -1.01224220
2
Properties=species:S:1:pos:R:3:forces:R:3 energy=-1.403608313177633 pbc="F F F"
Cs       0.00000000       0.00000000       0.00000000       0.00000000       0.00000000       1.03147066
Cs       0.00000000       0.00000000       3.67575758       0.00000000       0.00000000      -1.03147066
2
Properties=species:S:1:pos:R:3:forces:R:3 energy=-1.3430287134086392 pbc="F F F"
Cs       0.00000000       0.00000000       0.00000000       0.00000000       0.00000000       0.99333757
Cs       0.00000000       0.00000000       3.73535354       0.00000000       0.00000000      -0.99333757
2
Properties=species:S:1:pos:R:3:forces:R:3 energy=-1.286020612354991 pbc="F F F"
Cs       0.00000000       0.00000000       0.00000000       0.00000000       0.00000000       0.91441315
Cs       0.00000000       0.00000000       3.79494949       0.00000000       0.00000000      -0.91441315
2
Properties=species:S:1:pos:R:3:forces:R:3 energy=-1.2345217451390034 pbc="F F F"
Cs       0.00000000       0.00000000       0.00000000       0.00000000       0.00000000       0.81107992
Cs       0.00000000       0.00000000       3.85454545       0.00000000       0.00000000      -0.81107992
2
Properties=species:S:1:pos:R:3:forces:R:3 energy=-1.1895407581906319 pbc="F F F"
Cs       0.00000000       0.00000000       0.00000000       0.00000000       0.00000000       0.69790173
Cs       0.00000000       0.00000000       3.91414141       0.00000000       0.00000000      -0.69790173
2
Properties=species:S:1:pos:R:3:forces:R:3 energy=-1.1512950341931256 pbc="F F F"
Cs       0.00000000       0.00000000       0.00000000       0.00000000       0.00000000       0.58673304
Cs       0.00000000       0.00000000       3.97373737       0.00000000       0.00000000      -0.58673304
2
Properties=species:S:1:pos:R:3:forces:R:3 energy=-1.1193935733883993 pbc="F F F"
Cs       0.00000000       0.00000000       0.00000000       0.00000000       0.00000000       0.48617676
Cs       0.00000000       0.00000000       4.03333333       0.00000000       0.00000000      -0.48617676
2
Properties=species:S:1:pos:R:3:forces:R:3 energy=-1.0930321629426925 pbc="F F F"
Cs       0.00000000       0.00000000       0.00000000       0.00000000       0.00000000       0.40135139
Cs       0.00000000       0.00000000       4.09292929       0.00000000       0.00000000      -0.40135139
2
Properties=species:S:1:pos:R:3:forces:R:3 energy=-1.0712047358088994 pbc="F F F"
Cs       0.00000000       0.00000000       0.00000000       0.00000000       0.00000000       0.33407918
Cs       0.00000000       0.00000000       4.15252525       0.00000000       0.00000000      -0.33407918
2
Properties=species:S:1:pos:R:3:forces:R:3 energy=-1.0528793759070112 pbc="F F F"
Cs       0.00000000       0.00000000       0.00000000       0.00000000       0.00000000       0.28353319
Cs       0.00000000       0.00000000       4.21212121       0.00000000       0.00000000      -0.28353319
2
Properties=species:S:1:pos:R:3:forces:R:3 energy=-1.0371265053322931 pbc="F F F"
Cs       0.00000000       0.00000000       0.00000000       0.00000000       0.00000000       0.24724446
Cs       0.00000000       0.00000000       4.27171717       0.00000000       0.00000000      -0.24724446
2
Properties=species:S:1:pos:R:3:forces:R:3 energy=-1.0231853163997415 pbc="F F F"
Cs       0.00000000       0.00000000       0.00000000       0.00000000       0.00000000       0.22227502
Cs       0.00000000       0.00000000       4.33131313       0.00000000       0.00000000      -0.22227502
2
Properties=species:S:1:pos:R:3:forces:R:3 energy=-1.010457307000001 pbc="F F F"
Cs       0.00000000       0.00000000       0.00000000       0.00000000       0.00000000       0.20621502
Cs       0.00000000       0.00000000       4.39090909       0.00000000       0.00000000      -0.20621502
2
Properties=species:S:1:pos:R:3:forces:R:3 energy=-0.998454096024916 pbc="F F F"
Cs       0.00000000       0.00000000       0.00000000       0.00000000       0.00000000       0.19783260
Cs       0.00000000       0.00000000       4.45050505       0.00000000       0.00000000      -0.19783260
2
Properties=species:S:1:pos:R:3:forces:R:3 energy=-0.9867224664429773 pbc="F F F"
Cs       0.00000000       0.00000000       0.00000000       0.00000000       0.00000000       0.19726612
Cs       0.00000000       0.00000000       4.51010101       0.00000000       0.00000000      -0.19726612
2
Properties=species:S:1:pos:R:3:forces:R:3 energy=-0.9747612845120783 pbc="F F F"
Cs       0.00000000       0.00000000       0.00000000       0.00000000       0.00000000       0.20580238
Cs       0.00000000       0.00000000       4.56969697       0.00000000       0.00000000      -0.20580238
2
Properties=species:S:1:pos:R:3:forces:R:3 energy=-0.9619736702639495 pbc="F F F"
Cs       0.00000000       0.00000000       0.00000000       0.00000000       0.00000000       0.22533888
Cs       0.00000000       0.00000000       4.62929293       0.00000000       0.00000000      -0.22533888
2
Properties=species:S:1:pos:R:3:forces:R:3 energy=-0.9476484009830444 pbc="F F F"
Cs       0.00000000       0.00000000       0.00000000       0.00000000       0.00000000       0.25767371
Cs       0.00000000       0.00000000       4.68888889       0.00000000       0.00000000      -0.25767371
2
Properties=species:S:1:pos:R:3:forces:R:3 energy=-0.9309874072508496 pbc="F F F"
Cs       0.00000000       0.00000000       0.00000000       0.00000000       0.00000000       0.30373624
Cs       0.00000000       0.00000000       4.74848485       0.00000000       0.00000000      -0.30373624
2
Properties=species:S:1:pos:R:3:forces:R:3 energy=-0.9111823811776587 pbc="F F F"
Cs       0.00000000       0.00000000       0.00000000       0.00000000       0.00000000       0.36298850
Cs       0.00000000       0.00000000       4.80808081       0.00000000       0.00000000      -0.36298850
2
Properties=species:S:1:pos:R:3:forces:R:3 energy=-0.8875042644934011 pbc="F F F"
Cs       0.00000000       0.00000000       0.00000000       0.00000000       0.00000000       0.43314052
Cs       0.00000000       0.00000000       4.86767677       0.00000000       0.00000000      -0.43314052
2
Properties=species:S:1:pos:R:3:forces:R:3 energy=-0.8594148668488579 pbc="F F F"
Cs       0.00000000       0.00000000       0.00000000       0.00000000       0.00000000       0.51026773
Cs       0.00000000       0.00000000       4.92727273       0.00000000       0.00000000      -0.51026773
2
Properties=species:S:1:pos:R:3:forces:R:3 energy=-0.8266467298565731 pbc="F F F"
Cs       0.00000000       0.00000000       0.00000000       0.00000000       0.00000000       0.58924133
Cs       0.00000000       0.00000000       4.98686869       0.00000000       0.00000000      -0.58924133
2
Properties=species:S:1:pos:R:3:forces:R:3 energy=-0.7892654468316531 pbc="F F F"
Cs       0.00000000       0.00000000       0.00000000       0.00000000       0.00000000       0.66423774
Cs       0.00000000       0.00000000       5.04646465       0.00000000       0.00000000      -0.66423774
2
Properties=species:S:1:pos:R:3:forces:R:3 energy=-0.7476764344439012 pbc="F F F"
Cs       0.00000000       0.00000000       0.00000000       0.00000000       0.00000000       0.72923082
Cs       0.00000000       0.00000000       5.10606061       0.00000000       0.00000000      -0.72923082
2
Properties=species:S:1:pos:R:3:forces:R:3 energy=-0.7026573448151836 pbc="F F F"
Cs       0.00000000       0.00000000       0.00000000       0.00000000       0.00000000       0.77814370
Cs       0.00000000       0.00000000       5.16565657       0.00000000       0.00000000      -0.77814370
2
Properties=species:S:1:pos:R:3:forces:R:3 energy=-0.6553611061427216 pbc="F F F"
Cs       0.00000000       0.00000000       0.00000000       0.00000000       0.00000000       0.80503863
Cs       0.00000000       0.00000000       5.22525253       0.00000000       0.00000000      -0.80503863
2
Properties=species:S:1:pos:R:3:forces:R:3 energy=-0.6072504736657207 pbc="F F F"
Cs       0.00000000       0.00000000       0.00000000       0.00000000       0.00000000       0.80464369
Cs       0.00000000       0.00000000       5.28484848       0.00000000       0.00000000      -0.80464369
2
Properties=species:S:1:pos:R:3:forces:R:3 energy=-0.5600741202196707 pbc="F F F"
Cs       0.00000000       0.00000000       0.00000000       0.00000000       0.00000000       0.77307808
Cs       0.00000000       0.00000000       5.34444444       0.00000000       0.00000000      -0.77307808
2
Properties=species:S:1:pos:R:3:forces:R:3 energy=-0.5157437854141913 pbc="F F F"
Cs       0.00000000       0.00000000       0.00000000       0.00000000       0.00000000       0.70934689
Cs       0.00000000       0.00000000       5.40404040       0.00000000       0.00000000      -0.70934689
2
Properties=species:S:1:pos:R:3:forces:R:3 energy=-0.47608336179710214 pbc="F F F"
Cs       0.00000000       0.00000000       0.00000000       0.00000000       0.00000000       0.61714947
Cs       0.00000000       0.00000000       5.46363636       0.00000000       0.00000000      -0.61714947
2
Properties=species:S:1:pos:R:3:forces:R:3 energy=-0.4425877001293484 pbc="F F F"
Cs       0.00000000       0.00000000       0.00000000       0.00000000       0.00000000       0.50551510
Cs       0.00000000       0.00000000       5.52323232       0.00000000       0.00000000      -0.50551510
2
Properties=species:S:1:pos:R:3:forces:R:3 energy=-0.41597829865284 pbc="F F F"
Cs       0.00000000       0.00000000       0.00000000       0.00000000       0.00000000       0.38728702
Cs       0.00000000       0.00000000       5.58282828       0.00000000       0.00000000      -0.38728702
2
Properties=species:S:1:pos:R:3:forces:R:3 energy=-0.3963106755240517 pbc="F F F"
Cs       0.00000000       0.00000000       0.00000000       0.00000000       0.00000000       0.27469915
Cs       0.00000000       0.00000000       5.64242424       0.00000000       0.00000000      -0.27469915
2
Properties=species:S:1:pos:R:3:forces:R:3 energy=-0.38294988452988143 pbc="F F F"
Cs       0.00000000       0.00000000       0.00000000       0.00000000       0.00000000       0.17576510
Cs       0.00000000       0.00000000       5.70202020       0.00000000       0.00000000      -0.17576510
2
Properties=species:S:1:pos:R:3:forces:R:3 energy=-0.37502161071229106 pbc="F F F"
Cs       0.00000000       0.00000000       0.00000000       0.00000000       0.00000000       0.09405974
Cs       0.00000000       0.00000000       5.76161616       0.00000000       0.00000000      -0.09405974
2
Properties=species:S:1:pos:R:3:forces:R:3 energy=-0.3713801311804269 pbc="F F F"
Cs       0.00000000       0.00000000       0.00000000       0.00000000       0.00000000       0.03098033
Cs       0.00000000       0.00000000       5.82121212       0.00000000       0.00000000      -0.03098033
2
Properties=species:S:1:pos:R:3:forces:R:3 energy=-0.3709381088075723 pbc="F F F"
Cs       0.00000000       0.00000000       0.00000000       0.00000000       0.00000000      -0.01191948
Cs       0.00000000       0.00000000       5.88080808       0.00000000       0.00000000       0.01191948
2
Properties=species:S:1:pos:R:3:forces:R:3 energy=-0.37235158248833045 pbc="F F F"
Cs       0.00000000       0.00000000       0.00000000       0.00000000       0.00000000      -0.03243512
Cs       0.00000000       0.00000000       5.94040404       0.00000000       0.00000000       0.03243512
2
Properties=species:S:1:pos:R:3:forces:R:3 energy=-0.37427613180055985 pbc="F F F"
Cs       0.00000000       0.00000000       0.00000000       0.00000000       0.00000000      -0.02732364
Cs       0.00000000       0.00000000       6.00000000       0.00000000       0.00000000       0.02732364
