2
Properties=species:S:1:pos:R:3:forces:R:3 energy=18617.73563874292 pbc="F F F"
Cu       0.00000000       0.00000000       0.00000000       0.00000000       0.00000000 -421902.40625000
Cu       0.00000000       0.00000000       0.10000000       0.00000000       0.00000000  421902.40625000
2
Properties=species:S:1:pos:R:3:forces:R:3 energy=5846.563763742921 pbc="F F F"
Cu       0.00000000       0.00000000       0.00000000       0.00000000       0.00000000  -98866.16406250
Cu       0.00000000       0.00000000       0.15959596       0.00000000       0.00000000   98866.16406250
2
Properties=species:S:1:pos:R:3:forces:R:3 energy=2357.599164133546 pbc="F F F"
Cu       0.00000000       0.00000000       0.00000000       0.00000000       0.00000000  -32634.66601562
Cu       0.00000000       0.00000000       0.21919192       0.00000000       0.00000000   32634.66601562
2
Properties=species:S:1:pos:R:3:forces:R:3 energy=1097.5625430429639 pbc="F F F"
Cu       0.00000000       0.00000000       0.00000000       0.00000000       0.00000000  -13112.67871094
Cu       0.00000000       0.00000000       0.27878788       0.00000000       0.00000000   13112.67871094
2
Properties=species:S:1:pos:R:3:forces:R:3 energy=561.4795352304639 pbc="F F F"
Cu       0.00000000       0.00000000       0.00000000       0.00000000       0.00000000   -5954.68945312
Cu       0.00000000       0.00000000       0.33838384       0.00000000       0.00000000    5954.68945312
2
Properties=species:S:1:pos:R:3:forces:R:3 energy=308.76902498289326 pbc="F F F"
Cu       0.00000000       0.00000000       0.00000000       0.00000000       0.00000000   -2926.52978516
Cu       0.00000000       0.00000000       0.39797980       0.00000000       0.00000000    2926.52978516
2
Properties=species:S:1:pos:R:3:forces:R:3 energy=181.42693819723672 pbc="F F F"
Cu       0.00000000       0.00000000       0.00000000       0.00000000       0.00000000   -1515.54516602
Cu       0.00000000       0.00000000       0.45757576       0.00000000       0.00000000    1515.54516602
2
Properties=species:S:1:pos:R:3:forces:R:3 energy=114.40836827312242 pbc="F F F"
Cu       0.00000000       0.00000000       0.00000000       0.00000000       0.00000000    -810.92083740
Cu       0.00000000       0.00000000       0.51717172       0.00000000       0.00000000     810.92083740
2
Properties=species:S:1:pos:R:3:forces:R:3 energy=78.2717792576755 pbc="F F F"
Cu       0.00000000       0.00000000       0.00000000       0.00000000       0.00000000    -439.72567749
Cu       0.00000000       0.00000000       0.57676768       0.00000000       0.00000000     439.72567749
2
Properties=species:S:1:pos:R:3:forces:R:3 energy=58.72054412205733 pbc="F F F"
Cu       0.00000000       0.00000000       0.00000000       0.00000000       0.00000000    -236.13497925
Cu       0.00000000       0.00000000       0.63636364       0.00000000       0.00000000     236.13497925
2
Properties=species:S:1:pos:R:3:forces:R:3 energy=48.371625302297076 pbc="F F F"
Cu       0.00000000       0.00000000       0.00000000       0.00000000       0.00000000    -122.11831665
Cu       0.00000000       0.00000000       0.69595960       0.00000000       0.00000000     122.11831665
2
Properties=species:S:1:pos:R:3:forces:R:3 energy=43.14568474683902 pbc="F F F"
Cu       0.00000000       0.00000000       0.00000000       0.00000000       0.00000000     -60.10083389
Cu       0.00000000       0.00000000       0.75555556       0.00000000       0.00000000      60.10083389
2
Properties=species:S:1:pos:R:3:forces:R:3 energy=40.510762940998674 pbc="F F F"
Cu       0.00000000       0.00000000       0.00000000       0.00000000       0.00000000     -33.43453217
Cu       0.00000000       0.00000000       0.81515152       0.00000000       0.00000000      33.43453217
2
Properties=species:S:1:pos:R:3:forces:R:3 energy=38.62846193038231 pbc="F F F"
Cu       0.00000000       0.00000000       0.00000000       0.00000000       0.00000000     -33.51929474
Cu       0.00000000       0.00000000       0.87474747       0.00000000       0.00000000      33.51929474
2
Properties=species:S:1:pos:R:3:forces:R:3 energy=36.16211946052331 pbc="F F F"
Cu       0.00000000       0.00000000       0.00000000       0.00000000       0.00000000     -51.25021744
Cu       0.00000000       0.00000000       0.93434343       0.00000000       0.00000000      51.25021744
2
Properties=species:S:1:pos:R:3:forces:R:3 energy=32.41949771226381 pbc="F F F"
Cu       0.00000000       0.00000000       0.00000000       0.00000000       0.00000000     -74.00201416
Cu       0.00000000       0.00000000       0.99393939       0.00000000       0.00000000      74.00201416
2
Properties=species:S:1:pos:R:3:forces:R:3 energy=27.501600392643024 pbc="F F F"
Cu       0.00000000       0.00000000       0.00000000       0.00000000       0.00000000     -88.98426819
Cu       0.00000000       0.00000000       1.05353535       0.00000000       0.00000000      88.98426819
2
Properties=species:S:1:pos:R:3:forces:R:3 energy=22.07664044613893 pbc="F F F"
Cu       0.00000000       0.00000000       0.00000000       0.00000000       0.00000000     -91.08464050
Cu       0.00000000       0.00000000       1.11313131       0.00000000       0.00000000      91.08464050
2
Properties=species:S:1:pos:R:3:forces:R:3 energy=16.81488887174688 pbc="F F F"
Cu       0.00000000       0.00000000       0.00000000       0.00000000       0.00000000     -84.63772583
Cu       0.00000000       0.00000000       1.17272727       0.00000000       0.00000000      84.63772583
2
Properties=species:S:1:pos:R:3:forces:R:3 energy=12.058690986394367 pbc="F F F"
Cu       0.00000000       0.00000000       0.00000000       0.00000000       0.00000000     -74.41870117
Cu       0.00000000       0.00000000       1.23232323       0.00000000       0.00000000      74.41870117
2
Properties=species:S:1:pos:R:3:forces:R:3 energy=8.013068768673962 pbc="F F F"
Cu       0.00000000       0.00000000       0.00000000       0.00000000       0.00000000     -60.95725250
Cu       0.00000000       0.00000000       1.29191919       0.00000000       0.00000000      60.95725250
2
Properties=species:S:1:pos:R:3:forces:R:3 energy=4.797669352353629 pbc="F F F"
Cu       0.00000000       0.00000000       0.00000000       0.00000000       0.00000000     -47.10142136
Cu       0.00000000       0.00000000       1.35151515       0.00000000       0.00000000      47.10142136
2
Properties=species:S:1:pos:R:3:forces:R:3 energy=2.3962203446279915 pbc="F F F"
Cu       0.00000000       0.00000000       0.00000000       0.00000000       0.00000000     -33.40805054
Cu       0.00000000       0.00000000       1.41111111       0.00000000       0.00000000      33.40805054
2
Properties=species:S:1:pos:R:3:forces:R:3 energy=0.7996505632939677 pbc="F F F"
Cu       0.00000000       0.00000000       0.00000000       0.00000000       0.00000000     -20.67619896
Cu       0.00000000       0.00000000       1.47070707       0.00000000       0.00000000      20.67619896
2
Properties=species:S:1:pos:R:3:forces:R:3 energy=-0.1611650167361565 pbc="F F F"
Cu       0.00000000       0.00000000       0.00000000       0.00000000       0.00000000     -12.43588448
Cu       0.00000000       0.00000000       1.53030303       0.00000000       0.00000000      12.43588448
2
Properties=species:S:1:pos:R:3:forces:R:3 energy=-0.7712564226635976 pbc="F F F"
Cu       0.00000000       0.00000000       0.00000000       0.00000000       0.00000000      -8.60459709
Cu       0.00000000       0.00000000       1.58989899       0.00000000       0.00000000       8.60459709
2
Properties=species:S:1:pos:R:3:forces:R:3 energy=-1.2333202266370948 pbc="F F F"
Cu       0.00000000       0.00000000       0.00000000       0.00000000       0.00000000      -7.14153719
Cu       0.00000000       0.00000000       1.64949495       0.00000000       0.00000000       7.14153719
2
Properties=species:S:1:pos:R:3:forces:R:3 energy=-1.6379019835830844 pbc="F F F"
Cu       0.00000000       0.00000000       0.00000000       0.00000000       0.00000000      -6.48064756
Cu       0.00000000       0.00000000       1.70909091       0.00000000       0.00000000       6.48064756
2
Properties=species:S:1:pos:R:3:forces:R:3 energy=-2.0049416001137086 pbc="F F F"
Cu       0.00000000       0.00000000       0.00000000       0.00000000       0.00000000      -5.79731083
Cu       0.00000000       0.00000000       1.76868687       0.00000000       0.00000000       5.79731083
2
Properties=species:S:1:pos:R:3:forces:R:3 energy=-2.3229259389107355 pbc="F F F"
Cu       0.00000000       0.00000000       0.00000000       0.00000000       0.00000000      -4.82466507
Cu       0.00000000       0.00000000       1.82828283       0.00000000       0.00000000       4.82466507
2
Properties=species:S:1:pos:R:3:forces:R:3 energy=-2.5755203153952477 pbc="F F F"
Cu       0.00000000       0.00000000       0.00000000       0.00000000       0.00000000      -3.62997746
Cu       0.00000000       0.00000000       1.88787879       0.00000000       0.00000000       3.62997746
2
Properties=species:S:1:pos:R:3:forces:R:3 energy=-2.7548998087944594 pbc="F F F"
Cu       0.00000000       0.00000000       0.00000000       0.00000000       0.00000000      -2.39907289
Cu       0.00000000       0.00000000       1.94747475       0.00000000       0.00000000       2.39907289
2
Properties=species:S:1:pos:R:3:forces:R:3 energy=-2.8639036706112266 pbc="F F F"
Cu       0.00000000       0.00000000       0.00000000       0.00000000       0.00000000      -1.28784800
Cu       0.00000000       0.00000000       2.00707071       0.00000000       0.00000000       1.28784800
2
Properties=species:S:1:pos:R:3:forces:R:3 energy=-2.9123988012328286 pbc="F F F"
Cu       0.00000000       0.00000000       0.00000000       0.00000000       0.00000000      -0.37608987
Cu       0.00000000       0.00000000       2.06666667       0.00000000       0.00000000       0.37608987
2
Properties=species:S:1:pos:R:3:forces:R:3 energy=-2.913216145172742 pbc="F F F"
Cu       0.00000000       0.00000000       0.00000000       0.00000000       0.00000000       0.31067407
Cu       0.00000000       0.00000000       2.12626263       0.00000000       0.00000000      -0.31067407
2
Properties=species:S:1:pos:R:3:forces:R:3 energy=-2.8798118268245645 pbc="F F F"
Cu       0.00000000       0.00000000       0.00000000       0.00000000       0.00000000       0.77448368
Cu       0.00000000       0.00000000       2.18585859       0.00000000       0.00000000      -0.77448368
2
Properties=species:S:1:pos:R:3:forces:R:3 energy=-2.8248783048982458 pbc="F F F"
Cu       0.00000000       0.00000000       0.00000000       0.00000000       0.00000000       1.03901744
Cu       0.00000000       0.00000000       2.24545455       0.00000000       0.00000000      -1.03901744
2
Properties=species:S:1:pos:R:3:forces:R:3 energy=-2.759040953247853 pbc="F F F"
Cu       0.00000000       0.00000000       0.00000000       0.00000000       0.00000000       1.14930224
Cu       0.00000000       0.00000000       2.30505051       0.00000000       0.00000000      -1.14930224
2
Properties=species:S:1:pos:R:3:forces:R:3 energy=-2.689854305375533 pbc="F F F"
Cu       0.00000000       0.00000000       0.00000000       0.00000000       0.00000000       1.16046345
Cu       0.00000000       0.00000000       2.36464646       0.00000000       0.00000000      -1.16046345
2
Properties=species:S:1:pos:R:3:forces:R:3 energy=-2.62173331564751 pbc="F F F"
Cu       0.00000000       0.00000000       0.00000000       0.00000000       0.00000000       1.12009108
Cu       0.00000000       0.00000000       2.42424242       0.00000000       0.00000000      -1.12009108
2
Properties=species:S:1:pos:R:3:forces:R:3 energy=-2.556776322957478 pbc="F F F"
Cu       0.00000000       0.00000000       0.00000000       0.00000000       0.00000000       1.05755043
Cu       0.00000000       0.00000000       2.48383838       0.00000000       0.00000000      -1.05755043
2
Properties=species:S:1:pos:R:3:forces:R:3 energy=-2.4958764633072086 pbc="F F F"
Cu       0.00000000       0.00000000       0.00000000       0.00000000       0.00000000       0.98494536
Cu       0.00000000       0.00000000       2.54343434       0.00000000       0.00000000      -0.98494536
2
Properties=species:S:1:pos:R:3:forces:R:3 energy=-2.43949731116939 pbc="F F F"
Cu       0.00000000       0.00000000       0.00000000       0.00000000       0.00000000       0.90655023
Cu       0.00000000       0.00000000       2.60303030       0.00000000       0.00000000      -0.90655023
2
Properties=species:S:1:pos:R:3:forces:R:3 energy=-2.387753626618536 pbc="F F F"
Cu       0.00000000       0.00000000       0.00000000       0.00000000       0.00000000       0.83203393
Cu       0.00000000       0.00000000       2.66262626       0.00000000       0.00000000      -0.83203393
2
Properties=species:S:1:pos:R:3:forces:R:3 energy=-2.3398658072739487 pbc="F F F"
Cu       0.00000000       0.00000000       0.00000000       0.00000000       0.00000000       0.78033280
Cu       0.00000000       0.00000000       2.72222222       0.00000000       0.00000000      -0.78033280
2
Properties=species:S:1:pos:R:3:forces:R:3 energy=-2.294084408197667 pbc="F F F"
Cu       0.00000000       0.00000000       0.00000000       0.00000000       0.00000000       0.76115584
Cu       0.00000000       0.00000000       2.78181818       0.00000000       0.00000000      -0.76115584
2
Properties=species:S:1:pos:R:3:forces:R:3 energy=-2.248656049066773 pbc="F F F"
Cu       0.00000000       0.00000000       0.00000000       0.00000000       0.00000000       0.76644051
Cu       0.00000000       0.00000000       2.84141414       0.00000000       0.00000000      -0.76644051
2
Properties=species:S:1:pos:R:3:forces:R:3 energy=-2.2024666028947792 pbc="F F F"
Cu       0.00000000       0.00000000       0.00000000       0.00000000       0.00000000       0.78514862
Cu       0.00000000       0.00000000       2.90101010       0.00000000       0.00000000      -0.78514862
2
Properties=species:S:1:pos:R:3:forces:R:3 energy=-2.154969151198872 pbc="F F F"
Cu       0.00000000       0.00000000       0.00000000       0.00000000       0.00000000       0.80909282
Cu       0.00000000       0.00000000       2.96060606       0.00000000       0.00000000      -0.80909282
2
Properties=species:S:1:pos:R:3:forces:R:3 energy=-2.106071630050276 pbc="F F F"
Cu       0.00000000       0.00000000       0.00000000       0.00000000       0.00000000       0.83094627
Cu       0.00000000       0.00000000       3.02020202       0.00000000       0.00000000      -0.83094627
2
Properties=species:S:1:pos:R:3:forces:R:3 energy=-2.0560906819716203 pbc="F F F"
Cu       0.00000000       0.00000000       0.00000000       0.00000000       0.00000000       0.84464204
Cu       0.00000000       0.00000000       3.07979798       0.00000000       0.00000000      -0.84464204
2
Properties=species:S:1:pos:R:3:forces:R:3 energy=-2.005626955151264 pbc="F F F"
Cu       0.00000000       0.00000000       0.00000000       0.00000000       0.00000000       0.84686750
Cu       0.00000000       0.00000000       3.13939394       0.00000000       0.00000000      -0.84686750
2
Properties=species:S:1:pos:R:3:forces:R:3 energy=-1.9553870663336266 pbc="F F F"
Cu       0.00000000       0.00000000       0.00000000       0.00000000       0.00000000       0.83727187
Cu       0.00000000       0.00000000       3.19898990       0.00000000       0.00000000      -0.83727187
2
Properties=species:S:1:pos:R:3:forces:R:3 energy=-1.9060323770627794 pbc="F F F"
Cu       0.00000000       0.00000000       0.00000000       0.00000000       0.00000000       0.81755775
Cu       0.00000000       0.00000000       3.25858586       0.00000000       0.00000000      -0.81755775
2
Properties=species:S:1:pos:R:3:forces:R:3 energy=-1.85808910912788 pbc="F F F"
Cu       0.00000000       0.00000000       0.00000000       0.00000000       0.00000000       0.79040086
Cu       0.00000000       0.00000000       3.31818182       0.00000000       0.00000000      -0.79040086
2
Properties=species:S:1:pos:R:3:forces:R:3 energy=-1.8119133030806562 pbc="F F F"
Cu       0.00000000       0.00000000       0.00000000       0.00000000       0.00000000       0.75871909
Cu       0.00000000       0.00000000       3.37777778       0.00000000       0.00000000      -0.75871909
2
Properties=species:S:1:pos:R:3:forces:R:3 energy=-1.7676910968602408 pbc="F F F"
Cu       0.00000000       0.00000000       0.00000000       0.00000000       0.00000000       0.72524154
Cu       0.00000000       0.00000000       3.43737374       0.00000000       0.00000000      -0.72524154
2
Properties=species:S:1:pos:R:3:forces:R:3 energy=-1.725461677013507 pbc="F F F"
Cu       0.00000000       0.00000000       0.00000000       0.00000000       0.00000000       0.69215798
Cu       0.00000000       0.00000000       3.49696970       0.00000000       0.00000000      -0.69215798
2
Properties=species:S:1:pos:R:3:forces:R:3 energy=-1.6851559922120056 pbc="F F F"
Cu       0.00000000       0.00000000       0.00000000       0.00000000       0.00000000       0.66080290
Cu       0.00000000       0.00000000       3.55656566       0.00000000       0.00000000      -0.66080290
2
Properties=species:S:1:pos:R:3:forces:R:3 energy=-1.6466588587960682 pbc="F F F"
Cu       0.00000000       0.00000000       0.00000000       0.00000000       0.00000000       0.63145822
Cu       0.00000000       0.00000000       3.61616162       0.00000000       0.00000000      -0.63145822
2
Properties=species:S:1:pos:R:3:forces:R:3 energy=-1.609865745914354 pbc="F F F"
Cu       0.00000000       0.00000000       0.00000000       0.00000000       0.00000000       0.60341847
Cu       0.00000000       0.00000000       3.67575758       0.00000000       0.00000000      -0.60341847
2
Properties=species:S:1:pos:R:3:forces:R:3 energy=-1.5747369495623644 pbc="F F F"
Cu       0.00000000       0.00000000       0.00000000       0.00000000       0.00000000       0.57533526
Cu       0.00000000       0.00000000       3.73535354       0.00000000       0.00000000      -0.57533526
2
Properties=species:S:1:pos:R:3:forces:R:3 energy=-1.5413202910327428 pbc="F F F"
Cu       0.00000000       0.00000000       0.00000000       0.00000000       0.00000000       0.54573357
Cu       0.00000000       0.00000000       3.79494949       0.00000000       0.00000000      -0.54573357
2
Properties=species:S:1:pos:R:3:forces:R:3 energy=-1.5097424843292242 pbc="F F F"
Cu       0.00000000       0.00000000       0.00000000       0.00000000       0.00000000       0.51350939
Cu       0.00000000       0.00000000       3.85454545       0.00000000       0.00000000      -0.51350939
2
Properties=species:S:1:pos:R:3:forces:R:3 energy=-1.4801746193256415 pbc="F F F"
Cu       0.00000000       0.00000000       0.00000000       0.00000000       0.00000000       0.47828785
Cu       0.00000000       0.00000000       3.91414141       0.00000000       0.00000000      -0.47828785
2
Properties=species:S:1:pos:R:3:forces:R:3 energy=-1.4527849168733986 pbc="F F F"
Cu       0.00000000       0.00000000       0.00000000       0.00000000       0.00000000       0.44054219
Cu       0.00000000       0.00000000       3.97373737       0.00000000       0.00000000      -0.44054219
2
Properties=species:S:1:pos:R:3:forces:R:3 energy=-1.4276916252929863 pbc="F F F"
Cu       0.00000000       0.00000000       0.00000000       0.00000000       0.00000000       0.40149751
Cu       0.00000000       0.00000000       4.03333333       0.00000000       0.00000000      -0.40149751
2
Properties=species:S:1:pos:R:3:forces:R:3 energy=-1.4049223498313608 pbc="F F F"
Cu       0.00000000       0.00000000       0.00000000       0.00000000       0.00000000       0.36283410
Cu       0.00000000       0.00000000       4.09292929       0.00000000       0.00000000      -0.36283410
2
Properties=species:S:1:pos:R:3:forces:R:3 energy=-1.3844012624219182 pbc="F F F"
Cu       0.00000000       0.00000000       0.00000000       0.00000000       0.00000000       0.32633227
Cu       0.00000000       0.00000000       4.15252525       0.00000000       0.00000000      -0.32633227
2
Properties=species:S:1:pos:R:3:forces:R:3 energy=-1.3659531282898099 pbc="F F F"
Cu       0.00000000       0.00000000       0.00000000       0.00000000       0.00000000       0.29349369
Cu       0.00000000       0.00000000       4.21212121       0.00000000       0.00000000      -0.29349369
2
Properties=species:S:1:pos:R:3:forces:R:3 energy=-1.3493273755570132 pbc="F F F"
Cu       0.00000000       0.00000000       0.00000000       0.00000000       0.00000000       0.26526195
Cu       0.00000000       0.00000000       4.27171717       0.00000000       0.00000000      -0.26526195
2
Properties=species:S:1:pos:R:3:forces:R:3 energy=-1.3342391896010533 pbc="F F F"
Cu       0.00000000       0.00000000       0.00000000       0.00000000       0.00000000       0.24187931
Cu       0.00000000       0.00000000       4.33131313       0.00000000       0.00000000      -0.24187931
2
Properties=species:S:1:pos:R:3:forces:R:3 energy=-1.3204093895622924 pbc="F F F"
Cu       0.00000000       0.00000000       0.00000000       0.00000000       0.00000000       0.22291178
Cu       0.00000000       0.00000000       4.39090909       0.00000000       0.00000000      -0.22291178
2
Properties=species:S:1:pos:R:3:forces:R:3 energy=-1.3076002838295555 pbc="F F F"
Cu       0.00000000       0.00000000       0.00000000       0.00000000       0.00000000       0.20743220
Cu       0.00000000       0.00000000       4.45050505       0.00000000       0.00000000      -0.20743220
2
Properties=species:S:1:pos:R:3:forces:R:3 energy=-1.2956381134807469 pbc="F F F"
Cu       0.00000000       0.00000000       0.00000000       0.00000000       0.00000000       0.19431333
Cu       0.00000000       0.00000000       4.51010101       0.00000000       0.00000000      -0.19431333
2
Properties=species:S:1:pos:R:3:forces:R:3 energy=-1.284413656664811 pbc="F F F"
Cu       0.00000000       0.00000000       0.00000000       0.00000000       0.00000000       0.18251385
Cu       0.00000000       0.00000000       4.56969697       0.00000000       0.00000000      -0.18251385
2
Properties=species:S:1:pos:R:3:forces:R:3 energy=-1.2738729587875486 pbc="F F F"
Cu       0.00000000       0.00000000       0.00000000       0.00000000       0.00000000       0.17127283
Cu       0.00000000       0.00000000       4.62929293       0.00000000       0.00000000      -0.17127283
2
Properties=species:S:1:pos:R:3:forces:R:3 energy=-1.2639976697304423 pbc="F F F"
Cu       0.00000000       0.00000000       0.00000000       0.00000000       0.00000000       0.16013318
Cu       0.00000000       0.00000000       4.68888889       0.00000000       0.00000000      -0.16013318
2
Properties=species:S:1:pos:R:3:forces:R:3 energy=-1.2547897418800378 pbc="F F F"
Cu       0.00000000       0.00000000       0.00000000       0.00000000       0.00000000       0.14883079
Cu       0.00000000       0.00000000       4.74848485       0.00000000       0.00000000      -0.14883079
2
Properties=species:S:1:pos:R:3:forces:R:3 energy=-1.2462655671139586 pbc="F F F"
Cu       0.00000000       0.00000000       0.00000000       0.00000000       0.00000000       0.13716100
Cu       0.00000000       0.00000000       4.80808081       0.00000000       0.00000000      -0.13716100
2
Properties=species:S:1:pos:R:3:forces:R:3 energy=-1.2384530769321735 pbc="F F F"
Cu       0.00000000       0.00000000       0.00000000       0.00000000       0.00000000       0.12489232
Cu       0.00000000       0.00000000       4.86767677       0.00000000       0.00000000      -0.12489232
2
Properties=species:S:1:pos:R:3:forces:R:3 energy=-1.2313954985495523 pbc="F F F"
Cu       0.00000000       0.00000000       0.00000000       0.00000000       0.00000000       0.11180304
Cu       0.00000000       0.00000000       4.92727273       0.00000000       0.00000000      -0.11180304
2
Properties=species:S:1:pos:R:3:forces:R:3 energy=-1.2251457758179238 pbc="F F F"
Cu       0.00000000       0.00000000       0.00000000       0.00000000       0.00000000       0.09777626
Cu       0.00000000       0.00000000       4.98686869       0.00000000       0.00000000      -0.09777626
2
Properties=species:S:1:pos:R:3:forces:R:3 energy=-1.2197588217902056 pbc="F F F"
Cu       0.00000000       0.00000000       0.00000000       0.00000000       0.00000000       0.08290095
Cu       0.00000000       0.00000000       5.04646465       0.00000000       0.00000000      -0.08290095
2
Properties=species:S:1:pos:R:3:forces:R:3 energy=-1.2152755193330282 pbc="F F F"
Cu       0.00000000       0.00000000       0.00000000       0.00000000       0.00000000       0.06750448
Cu       0.00000000       0.00000000       5.10606061       0.00000000       0.00000000      -0.06750448
2
Properties=species:S:1:pos:R:3:forces:R:3 energy=-1.2117121142518286 pbc="F F F"
Cu       0.00000000       0.00000000       0.00000000       0.00000000       0.00000000       0.05212700
Cu       0.00000000       0.00000000       5.16565657       0.00000000       0.00000000      -0.05212700
2
Properties=species:S:1:pos:R:3:forces:R:3 energy=-1.2090483228722926 pbc="F F F"
Cu       0.00000000       0.00000000       0.00000000       0.00000000       0.00000000       0.03744506
Cu       0.00000000       0.00000000       5.22525253       0.00000000       0.00000000      -0.03744506
2
Properties=species:S:1:pos:R:3:forces:R:3 energy=-1.2072213985023676 pbc="F F F"
Cu       0.00000000       0.00000000       0.00000000       0.00000000       0.00000000       0.02415564
Cu       0.00000000       0.00000000       5.28484848       0.00000000       0.00000000      -0.02415564
2
Properties=species:S:1:pos:R:3:forces:R:3 energy=-1.2061290795703201 pbc="F F F"
Cu       0.00000000       0.00000000       0.00000000       0.00000000       0.00000000       0.01288133
Cu       0.00000000       0.00000000       5.34444444       0.00000000       0.00000000      -0.01288133
2
Properties=species:S:1:pos:R:3:forces:R:3 energy=-1.2056367596051296 pbc="F F F"
Cu       0.00000000       0.00000000       0.00000000       0.00000000       0.00000000       0.00408034
Cu       0.00000000       0.00000000       5.40404040       0.00000000       0.00000000      -0.00408034
2
Properties=species:S:1:pos:R:3:forces:R:3 energy=-1.2055890996388203 pbc="F F F"
Cu       0.00000000       0.00000000       0.00000000       0.00000000       0.00000000      -0.00202300
Cu       0.00000000       0.00000000       5.46363636       0.00000000       0.00000000       0.00202300
2
Properties=species:S:1:pos:R:3:forces:R:3 energy=-1.2058242473740484 pbc="F F F"
Cu       0.00000000       0.00000000       0.00000000       0.00000000       0.00000000      -0.00545829
Cu       0.00000000       0.00000000       5.52323232       0.00000000       0.00000000       0.00545829
2
Properties=species:S:1:pos:R:3:forces:R:3 energy=-1.2061922247170485 pbc="F F F"
Cu       0.00000000       0.00000000       0.00000000       0.00000000       0.00000000      -0.00652256
Cu       0.00000000       0.00000000       5.58282828       0.00000000       0.00000000       0.00652256
2
Properties=species:S:1:pos:R:3:forces:R:3 energy=-1.2065642395654632 pbc="F F F"
Cu       0.00000000       0.00000000       0.00000000       0.00000000       0.00000000      -0.00570424
Cu       0.00000000       0.00000000       5.64242424       0.00000000       0.00000000       0.00570424
2
Properties=species:S:1:pos:R:3:forces:R:3 energy=-1.2068473881487336 pbc="F F F"
Cu       0.00000000       0.00000000       0.00000000       0.00000000       0.00000000      -0.00362238
Cu       0.00000000       0.00000000       5.70202020       0.00000000       0.00000000       0.00362238
2
Properties=species:S:1:pos:R:3:forces:R:3 energy=-1.206983593231872 pbc="F F F"
Cu       0.00000000       0.00000000       0.00000000       0.00000000       0.00000000      -0.00092512
Cu       0.00000000       0.00000000       5.76161616       0.00000000       0.00000000       0.00092512
2
Properties=species:S:1:pos:R:3:forces:R:3 energy=-1.2069572327180367 pbc="F F F"
Cu       0.00000000       0.00000000       0.00000000       0.00000000       0.00000000       0.00177779
Cu       0.00000000       0.00000000       5.82121212       0.00000000       0.00000000      -0.00177779
2
Properties=species:S:1:pos:R:3:forces:R:3 energy=-1.2067811054225421 pbc="F F F"
Cu       0.00000000       0.00000000       0.00000000       0.00000000       0.00000000       0.00399257
Cu       0.00000000       0.00000000       5.88080808       0.00000000       0.00000000      -0.00399257
2
Properties=species:S:1:pos:R:3:forces:R:3 energy=-1.2064989289242516 pbc="F F F"
Cu       0.00000000       0.00000000       0.00000000       0.00000000       0.00000000       0.00534738
Cu       0.00000000       0.00000000       5.94040404       0.00000000       0.00000000      -0.00534738
2
Properties=species:S:1:pos:R:3:forces:R:3 energy=-1.2061662755827145 pbc="F F F"
Cu       0.00000000       0.00000000       0.00000000       0.00000000       0.00000000       0.00560382
Cu       0.00000000       0.00000000       6.00000000       0.00000000       0.00000000      -0.00560382
