2
Properties=species:S:1:pos:R:3:forces:R:3 energy=71835.11482785015 pbc="F F F"
Er       0.00000000       0.00000000       0.00000000       0.00000000       0.00000000 -1795499.25000000
Er       0.00000000       0.00000000       0.10000000       0.00000000       0.00000000 1795499.25000000
2
Properties=species:S:1:pos:R:3:forces:R:3 energy=20030.860921600146 pbc="F F F"
Er       0.00000000       0.00000000       0.00000000       0.00000000       0.00000000 -374089.81250000
Er       0.00000000       0.00000000       0.15959596       0.00000000       0.00000000  374089.81250000
2
Properties=species:S:1:pos:R:3:forces:R:3 energy=7300.360921600146 pbc="F F F"
Er       0.00000000       0.00000000       0.00000000       0.00000000       0.00000000 -113260.99218750
Er       0.00000000       0.00000000       0.21919192       0.00000000       0.00000000  113260.99218750
2
Properties=species:S:1:pos:R:3:forces:R:3 energy=3074.282796600146 pbc="F F F"
Er       0.00000000       0.00000000       0.00000000       0.00000000       0.00000000  -41943.79296875
Er       0.00000000       0.00000000       0.27878788       0.00000000       0.00000000   41943.79296875
2
Properties=species:S:1:pos:R:3:forces:R:3 energy=1420.6266686704585 pbc="F F F"
Er       0.00000000       0.00000000       0.00000000       0.00000000       0.00000000  -17504.08203125
Er       0.00000000       0.00000000       0.33838384       0.00000000       0.00000000   17504.08203125
2
Properties=species:S:1:pos:R:3:forces:R:3 energy=704.4897057798336 pbc="F F F"
Er       0.00000000       0.00000000       0.00000000       0.00000000       0.00000000   -7921.11181641
Er       0.00000000       0.00000000       0.39797980       0.00000000       0.00000000    7921.11181641
2
Properties=species:S:1:pos:R:3:forces:R:3 energy=371.0305383120361 pbc="F F F"
Er       0.00000000       0.00000000       0.00000000       0.00000000       0.00000000   -3817.62475586
Er       0.00000000       0.00000000       0.45757576       0.00000000       0.00000000    3817.62475586
2
Properties=species:S:1:pos:R:3:forces:R:3 energy=206.3678338569339 pbc="F F F"
Er       0.00000000       0.00000000       0.00000000       0.00000000       0.00000000   -1941.23974609
Er       0.00000000       0.00000000       0.51717172       0.00000000       0.00000000    1941.23974609
2
Properties=species:S:1:pos:R:3:forces:R:3 energy=120.81521394819447 pbc="F F F"
Er       0.00000000       0.00000000       0.00000000       0.00000000       0.00000000   -1034.83312988
Er       0.00000000       0.00000000       0.57676768       0.00000000       0.00000000    1034.83312988
2
Properties=species:S:1:pos:R:3:forces:R:3 energy=74.32760412292708 pbc="F F F"
Er       0.00000000       0.00000000       0.00000000       0.00000000       0.00000000    -575.05230713
Er       0.00000000       0.00000000       0.63636364       0.00000000       0.00000000     575.05230713
2
Properties=species:S:1:pos:R:3:forces:R:3 energy=48.05673017551731 pbc="F F F"
Er       0.00000000       0.00000000       0.00000000       0.00000000       0.00000000    -331.33694458
Er       0.00000000       0.00000000       0.69595960       0.00000000       0.00000000     331.33694458
2
Properties=species:S:1:pos:R:3:forces:R:3 energy=32.693014138728046 pbc="F F F"
Er       0.00000000       0.00000000       0.00000000       0.00000000       0.00000000    -197.14179993
Er       0.00000000       0.00000000       0.75555556       0.00000000       0.00000000     197.14179993
2
Properties=species:S:1:pos:R:3:forces:R:3 energy=23.420696404430974 pbc="F F F"
Er       0.00000000       0.00000000       0.00000000       0.00000000       0.00000000    -121.04186249
Er       0.00000000       0.00000000       0.81515152       0.00000000       0.00000000     121.04186249
2
Properties=species:S:1:pos:R:3:forces:R:3 energy=17.633739832733504 pbc="F F F"
Er       0.00000000       0.00000000       0.00000000       0.00000000       0.00000000     -77.14287567
Er       0.00000000       0.00000000       0.87474747       0.00000000       0.00000000      77.14287567
2
Properties=species:S:1:pos:R:3:forces:R:3 energy=13.860683152896677 pbc="F F F"
Er       0.00000000       0.00000000       0.00000000       0.00000000       0.00000000     -51.82139587
Er       0.00000000       0.00000000       0.93434343       0.00000000       0.00000000      51.82139587
2
Properties=species:S:1:pos:R:3:forces:R:3 energy=11.23846449802713 pbc="F F F"
Er       0.00000000       0.00000000       0.00000000       0.00000000       0.00000000     -37.60739136
Er       0.00000000       0.00000000       0.99393939       0.00000000       0.00000000      37.60739136
2
Properties=species:S:1:pos:R:3:forces:R:3 energy=9.242393252744392 pbc="F F F"
Er       0.00000000       0.00000000       0.00000000       0.00000000       0.00000000     -30.28169441
Er       0.00000000       0.00000000       1.05353535       0.00000000       0.00000000      30.28169441
2
Properties=species:S:1:pos:R:3:forces:R:3 energy=7.544313962826786 pbc="F F F"
Er       0.00000000       0.00000000       0.00000000       0.00000000       0.00000000     -27.23848724
Er       0.00000000       0.00000000       1.11313131       0.00000000       0.00000000      27.23848724
2
Properties=species:S:1:pos:R:3:forces:R:3 energy=5.953097935514249 pbc="F F F"
Er       0.00000000       0.00000000       0.00000000       0.00000000       0.00000000     -26.34408951
Er       0.00000000       0.00000000       1.17272727       0.00000000       0.00000000      26.34408951
2
Properties=species:S:1:pos:R:3:forces:R:3 energy=4.4021635080890045 pbc="F F F"
Er       0.00000000       0.00000000       0.00000000       0.00000000       0.00000000     -25.57992172
Er       0.00000000       0.00000000       1.23232323       0.00000000       0.00000000      25.57992172
2
Properties=species:S:1:pos:R:3:forces:R:3 energy=2.9290831404594004 pbc="F F F"
Er       0.00000000       0.00000000       0.00000000       0.00000000       0.00000000     -23.60766029
Er       0.00000000       0.00000000       1.29191919       0.00000000       0.00000000      23.60766029
2
Properties=species:S:1:pos:R:3:forces:R:3 energy=1.61513997580937 pbc="F F F"
Er       0.00000000       0.00000000       0.00000000       0.00000000       0.00000000     -20.31116104
Er       0.00000000       0.00000000       1.35151515       0.00000000       0.00000000      20.31116104
2
Properties=species:S:1:pos:R:3:forces:R:3 energy=0.5231410705103253 pbc="F F F"
Er       0.00000000       0.00000000       0.00000000       0.00000000       0.00000000     -16.23983383
Er       0.00000000       0.00000000       1.41111111       0.00000000       0.00000000      16.23983383
2
Properties=species:S:1:pos:R:3:forces:R:3 energy=-0.3080066994134444 pbc="F F F"
Er       0.00000000       0.00000000       0.00000000       0.00000000       0.00000000     -11.52675819
Er       0.00000000       0.00000000       1.47070707       0.00000000       0.00000000      11.52675819
2
Properties=species:S:1:pos:R:3:forces:R:3 energy=-0.836912929042774 pbc="F F F"
Er       0.00000000       0.00000000       0.00000000       0.00000000       0.00000000      -6.17004442
Er       0.00000000       0.00000000       1.53030303       0.00000000       0.00000000       6.17004442
2
Properties=species:S:1:pos:R:3:forces:R:3 energy=-1.0547931506030035 pbc="F F F"
Er       0.00000000       0.00000000       0.00000000       0.00000000       0.00000000      -1.41220784
Er       0.00000000       0.00000000       1.58989899       0.00000000       0.00000000       1.41220784
2
Properties=species:S:1:pos:R:3:forces:R:3 energy=-1.0534197303297357 pbc="F F F"
Er       0.00000000       0.00000000       0.00000000       0.00000000       0.00000000       0.99150026
Er       0.00000000       0.00000000       1.64949495       0.00000000       0.00000000      -0.99150026
2
Properties=species:S:1:pos:R:3:forces:R:3 energy=-0.9859652095531777 pbc="F F F"
Er       0.00000000       0.00000000       0.00000000       0.00000000       0.00000000       0.96700299
Er       0.00000000       0.00000000       1.70909091       0.00000000       0.00000000      -0.96700299
2
Properties=species:S:1:pos:R:3:forces:R:3 energy=-0.957382602288761 pbc="F F F"
Er       0.00000000       0.00000000       0.00000000       0.00000000       0.00000000      -0.02909808
Er       0.00000000       0.00000000       1.76868687       0.00000000       0.00000000       0.02909808
2
Properties=species:S:1:pos:R:3:forces:R:3 energy=-0.9790227040570947 pbc="F F F"
Er       0.00000000       0.00000000       0.00000000       0.00000000       0.00000000      -0.53387380
Er       0.00000000       0.00000000       1.82828283       0.00000000       0.00000000       0.53387380
2
Properties=species:S:1:pos:R:3:forces:R:3 energy=-0.999966120546464 pbc="F F F"
Er       0.00000000       0.00000000       0.00000000       0.00000000       0.00000000      -0.02451829
Er       0.00000000       0.00000000       1.88787879       0.00000000       0.00000000       0.02451829
2
Properties=species:S:1:pos:R:3:forces:R:3 energy=-0.9744196103671954 pbc="F F F"
Er       0.00000000       0.00000000       0.00000000       0.00000000       0.00000000       0.85691935
Er       0.00000000       0.00000000       1.94747475       0.00000000       0.00000000      -0.85691935
2
Properties=species:S:1:pos:R:3:forces:R:3 energy=-0.9075905957465235 pbc="F F F"
Er       0.00000000       0.00000000       0.00000000       0.00000000       0.00000000       1.28075957
Er       0.00000000       0.00000000       2.00707071       0.00000000       0.00000000      -1.28075957
2
Properties=species:S:1:pos:R:3:forces:R:3 energy=-0.8324717025016688 pbc="F F F"
Er       0.00000000       0.00000000       0.00000000       0.00000000       0.00000000       1.17639923
Er       0.00000000       0.00000000       2.06666667       0.00000000       0.00000000      -1.17639923
2
Properties=species:S:1:pos:R:3:forces:R:3 energy=-0.7719522457946221 pbc="F F F"
Er       0.00000000       0.00000000       0.00000000       0.00000000       0.00000000       0.83579516
Er       0.00000000       0.00000000       2.12626263       0.00000000       0.00000000      -0.83579516
2
Properties=species:S:1:pos:R:3:forces:R:3 energy=-0.7338041517812618 pbc="F F F"
Er       0.00000000       0.00000000       0.00000000       0.00000000       0.00000000       0.44281134
Er       0.00000000       0.00000000       2.18585859       0.00000000       0.00000000      -0.44281134
2
Properties=species:S:1:pos:R:3:forces:R:3 energy=-0.7190999887012244 pbc="F F F"
Er       0.00000000       0.00000000       0.00000000       0.00000000       0.00000000       0.05196325
Er       0.00000000       0.00000000       2.24545455       0.00000000       0.00000000      -0.05196325
2
Properties=species:S:1:pos:R:3:forces:R:3 energy=-0.727470612814011 pbc="F F F"
Er       0.00000000       0.00000000       0.00000000       0.00000000       0.00000000      -0.33201036
Er       0.00000000       0.00000000       2.30505051       0.00000000       0.00000000       0.33201036
2
Properties=species:S:1:pos:R:3:forces:R:3 energy=-0.758583213869859 pbc="F F F"
Er       0.00000000       0.00000000       0.00000000       0.00000000       0.00000000      -0.71110088
Er       0.00000000       0.00000000       2.36464646       0.00000000       0.00000000       0.71110088
2
Properties=species:S:1:pos:R:3:forces:R:3 energy=-0.8120131487003874 pbc="F F F"
Er       0.00000000       0.00000000       0.00000000       0.00000000       0.00000000      -1.07902765
Er       0.00000000       0.00000000       2.42424242       0.00000000       0.00000000       1.07902765
2
Properties=species:S:1:pos:R:3:forces:R:3 energy=-0.8866530282738905 pbc="F F F"
Er       0.00000000       0.00000000       0.00000000       0.00000000       0.00000000      -1.41953731
Er       0.00000000       0.00000000       2.48383838       0.00000000       0.00000000       1.41953731
2
Properties=species:S:1:pos:R:3:forces:R:3 energy=-0.9802527679064805 pbc="F F F"
Er       0.00000000       0.00000000       0.00000000       0.00000000       0.00000000      -1.71193016
Er       0.00000000       0.00000000       2.54343434       0.00000000       0.00000000       1.71193016
2
Properties=species:S:1:pos:R:3:forces:R:3 energy=-1.0893889058772217 pbc="F F F"
Er       0.00000000       0.00000000       0.00000000       0.00000000       0.00000000      -1.93859780
Er       0.00000000       0.00000000       2.60303030       0.00000000       0.00000000       1.93859780
2
Properties=species:S:1:pos:R:3:forces:R:3 energy=-1.2098109861938044 pbc="F F F"
Er       0.00000000       0.00000000       0.00000000       0.00000000       0.00000000      -2.08956957
Er       0.00000000       0.00000000       2.66262626       0.00000000       0.00000000       2.08956957
2
Properties=species:S:1:pos:R:3:forces:R:3 energy=-1.3368803543960837 pbc="F F F"
Er       0.00000000       0.00000000       0.00000000       0.00000000       0.00000000      -2.16156936
Er       0.00000000       0.00000000       2.72222222       0.00000000       0.00000000       2.16156936
2
Properties=species:S:1:pos:R:3:forces:R:3 energy=-1.4658760992782194 pbc="F F F"
Er       0.00000000       0.00000000       0.00000000       0.00000000       0.00000000      -2.15428233
Er       0.00000000       0.00000000       2.78181818       0.00000000       0.00000000       2.15428233
2
Properties=species:S:1:pos:R:3:forces:R:3 energy=-1.5920784876400853 pbc="F F F"
Er       0.00000000       0.00000000       0.00000000       0.00000000       0.00000000      -2.06782818
Er       0.00000000       0.00000000       2.84141414       0.00000000       0.00000000       2.06782818
2
Properties=species:S:1:pos:R:3:forces:R:3 energy=-1.710796832998435 pbc="F F F"
Er       0.00000000       0.00000000       0.00000000       0.00000000       0.00000000      -1.90362489
Er       0.00000000       0.00000000       2.90101010       0.00000000       0.00000000       1.90362489
2
Properties=species:S:1:pos:R:3:forces:R:3 energy=-1.8175415140958409 pbc="F F F"
Er       0.00000000       0.00000000       0.00000000       0.00000000       0.00000000      -1.66747618
Er       0.00000000       0.00000000       2.96060606       0.00000000       0.00000000       1.66747618
2
Properties=species:S:1:pos:R:3:forces:R:3 energy=-1.9083672986463676 pbc="F F F"
Er       0.00000000       0.00000000       0.00000000       0.00000000       0.00000000      -1.37224078
Er       0.00000000       0.00000000       3.02020202       0.00000000       0.00000000       1.37224078
2
Properties=species:S:1:pos:R:3:forces:R:3 energy=-1.980316678859855 pbc="F F F"
Er       0.00000000       0.00000000       0.00000000       0.00000000       0.00000000      -1.03765154
Er       0.00000000       0.00000000       3.07979798       0.00000000       0.00000000       1.03765154
2
Properties=species:S:1:pos:R:3:forces:R:3 energy=-2.031727244667304 pbc="F F F"
Er       0.00000000       0.00000000       0.00000000       0.00000000       0.00000000      -0.68683296
Er       0.00000000       0.00000000       3.13939394       0.00000000       0.00000000       0.68683296
2
Properties=species:S:1:pos:R:3:forces:R:3 energy=-2.0622889928788792 pbc="F F F"
Er       0.00000000       0.00000000       0.00000000       0.00000000       0.00000000      -0.34118405
Er       0.00000000       0.00000000       3.19898990       0.00000000       0.00000000       0.34118405
2
Properties=species:S:1:pos:R:3:forces:R:3 energy=-2.0728123425787723 pbc="F F F"
Er       0.00000000       0.00000000       0.00000000       0.00000000       0.00000000      -0.01639571
Er       0.00000000       0.00000000       3.25858586       0.00000000       0.00000000       0.01639571
2
Properties=species:S:1:pos:R:3:forces:R:3 energy=-2.0648409673511816 pbc="F F F"
Er       0.00000000       0.00000000       0.00000000       0.00000000       0.00000000       0.27848500
Er       0.00000000       0.00000000       3.31818182       0.00000000       0.00000000      -0.27848500
2
Properties=species:S:1:pos:R:3:forces:R:3 energy=-2.040298795407299 pbc="F F F"
Er       0.00000000       0.00000000       0.00000000       0.00000000       0.00000000       0.53925574
Er       0.00000000       0.00000000       3.37777778       0.00000000       0.00000000      -0.53925574
2
Properties=species:S:1:pos:R:3:forces:R:3 energy=-2.0012870266754756 pbc="F F F"
Er       0.00000000       0.00000000       0.00000000       0.00000000       0.00000000       0.76371872
Er       0.00000000       0.00000000       3.43737374       0.00000000       0.00000000      -0.76371872
2
Properties=species:S:1:pos:R:3:forces:R:3 energy=-1.9500356381229296 pbc="F F F"
Er       0.00000000       0.00000000       0.00000000       0.00000000       0.00000000       0.94956326
Er       0.00000000       0.00000000       3.49696970       0.00000000       0.00000000      -0.94956326
2
Properties=species:S:1:pos:R:3:forces:R:3 energy=-1.8889326829066326 pbc="F F F"
Er       0.00000000       0.00000000       0.00000000       0.00000000       0.00000000       1.09379303
Er       0.00000000       0.00000000       3.55656566       0.00000000       0.00000000      -1.09379303
2
Properties=species:S:1:pos:R:3:forces:R:3 energy=-1.8205487771228006 pbc="F F F"
Er       0.00000000       0.00000000       0.00000000       0.00000000       0.00000000       1.19353771
Er       0.00000000       0.00000000       3.61616162       0.00000000       0.00000000      -1.19353771
2
Properties=species:S:1:pos:R:3:forces:R:3 energy=-1.7475826056584933 pbc="F F F"
Er       0.00000000       0.00000000       0.00000000       0.00000000       0.00000000       1.24764812
Er       0.00000000       0.00000000       3.67575758       0.00000000       0.00000000      -1.24764812
2
Properties=species:S:1:pos:R:3:forces:R:3 energy=-1.672707521674682 pbc="F F F"
Er       0.00000000       0.00000000       0.00000000       0.00000000       0.00000000       1.25821054
Er       0.00000000       0.00000000       3.73535354       0.00000000       0.00000000      -1.25821054
2
Properties=species:S:1:pos:R:3:forces:R:3 energy=-1.5983615488593812 pbc="F F F"
Er       0.00000000       0.00000000       0.00000000       0.00000000       0.00000000       1.23120284
Er       0.00000000       0.00000000       3.79494949       0.00000000       0.00000000      -1.23120284
2
Properties=species:S:1:pos:R:3:forces:R:3 energy=-1.526522674748632 pbc="F F F"
Er       0.00000000       0.00000000       0.00000000       0.00000000       0.00000000       1.17580986
Er       0.00000000       0.00000000       3.85454545       0.00000000       0.00000000      -1.17580986
2
Properties=species:S:1:pos:R:3:forces:R:3 energy=-1.4585671754056222 pbc="F F F"
Er       0.00000000       0.00000000       0.00000000       0.00000000       0.00000000       1.10267067
Er       0.00000000       0.00000000       3.91414141       0.00000000       0.00000000      -1.10267067
2
Properties=species:S:1:pos:R:3:forces:R:3 energy=-1.395245465452109 pbc="F F F"
Er       0.00000000       0.00000000       0.00000000       0.00000000       0.00000000       1.02177691
Er       0.00000000       0.00000000       3.97373737       0.00000000       0.00000000      -1.02177691
2
Properties=species:S:1:pos:R:3:forces:R:3 energy=-1.336777843302814 pbc="F F F"
Er       0.00000000       0.00000000       0.00000000       0.00000000       0.00000000       0.94087416
Er       0.00000000       0.00000000       4.03333333       0.00000000       0.00000000      -0.94087416
2
Properties=species:S:1:pos:R:3:forces:R:3 energy=-1.2830041926905211 pbc="F F F"
Er       0.00000000       0.00000000       0.00000000       0.00000000       0.00000000       0.86475813
Er       0.00000000       0.00000000       4.09292929       0.00000000       0.00000000      -0.86475813
2
Properties=species:S:1:pos:R:3:forces:R:3 energy=-1.2335678287331417 pbc="F F F"
Er       0.00000000       0.00000000       0.00000000       0.00000000       0.00000000       0.79547817
Er       0.00000000       0.00000000       4.15252525       0.00000000       0.00000000      -0.79547817
2
Properties=species:S:1:pos:R:3:forces:R:3 energy=-1.1880530666218079 pbc="F F F"
Er       0.00000000       0.00000000       0.00000000       0.00000000       0.00000000       0.73305255
Er       0.00000000       0.00000000       4.21212121       0.00000000       0.00000000      -0.73305255
2
Properties=species:S:1:pos:R:3:forces:R:3 energy=-1.1460802936131351 pbc="F F F"
Er       0.00000000       0.00000000       0.00000000       0.00000000       0.00000000       0.67633480
Er       0.00000000       0.00000000       4.27171717       0.00000000       0.00000000      -0.67633480
2
Properties=species:S:1:pos:R:3:forces:R:3 energy=-1.107355925225141 pbc="F F F"
Er       0.00000000       0.00000000       0.00000000       0.00000000       0.00000000       0.62382376
Er       0.00000000       0.00000000       4.33131313       0.00000000       0.00000000      -0.62382376
2
Properties=species:S:1:pos:R:3:forces:R:3 energy=-1.0716682645903322 pbc="F F F"
Er       0.00000000       0.00000000       0.00000000       0.00000000       0.00000000       0.57423061
Er       0.00000000       0.00000000       4.39090909       0.00000000       0.00000000      -0.57423061
2
Properties=species:S:1:pos:R:3:forces:R:3 energy=-1.0388679711391506 pbc="F F F"
Er       0.00000000       0.00000000       0.00000000       0.00000000       0.00000000       0.52686810
Er       0.00000000       0.00000000       4.45050505       0.00000000       0.00000000      -0.52686810
2
Properties=species:S:1:pos:R:3:forces:R:3 energy=-1.008825842672492 pbc="F F F"
Er       0.00000000       0.00000000       0.00000000       0.00000000       0.00000000       0.48174986
Er       0.00000000       0.00000000       4.51010101       0.00000000       0.00000000      -0.48174986
2
Properties=species:S:1:pos:R:3:forces:R:3 energy=-0.9813908030066302 pbc="F F F"
Er       0.00000000       0.00000000       0.00000000       0.00000000       0.00000000       0.43948078
Er       0.00000000       0.00000000       4.56969697       0.00000000       0.00000000      -0.43948078
2
Properties=species:S:1:pos:R:3:forces:R:3 energy=-0.9563678341674661 pbc="F F F"
Er       0.00000000       0.00000000       0.00000000       0.00000000       0.00000000       0.40098497
Er       0.00000000       0.00000000       4.62929293       0.00000000       0.00000000      -0.40098497
2
Properties=species:S:1:pos:R:3:forces:R:3 energy=-0.9335040378231423 pbc="F F F"
Er       0.00000000       0.00000000       0.00000000       0.00000000       0.00000000       0.36716783
Er       0.00000000       0.00000000       4.68888889       0.00000000       0.00000000      -0.36716783
2
Properties=species:S:1:pos:R:3:forces:R:3 energy=-0.912498944303742 pbc="F F F"
Er       0.00000000       0.00000000       0.00000000       0.00000000       0.00000000       0.33864406
Er       0.00000000       0.00000000       4.74848485       0.00000000       0.00000000      -0.33864406
2
Properties=species:S:1:pos:R:3:forces:R:3 energy=-0.8930311368705715 pbc="F F F"
Er       0.00000000       0.00000000       0.00000000       0.00000000       0.00000000       0.31560656
Er       0.00000000       0.00000000       4.80808081       0.00000000       0.00000000      -0.31560656
2
Properties=species:S:1:pos:R:3:forces:R:3 energy=-0.8747774139015078 pbc="F F F"
Er       0.00000000       0.00000000       0.00000000       0.00000000       0.00000000       0.29778659
Er       0.00000000       0.00000000       4.86767677       0.00000000       0.00000000      -0.29778659
2
Properties=species:S:1:pos:R:3:forces:R:3 energy=-0.8574462892852086 pbc="F F F"
Er       0.00000000       0.00000000       0.00000000       0.00000000       0.00000000       0.28451028
Er       0.00000000       0.00000000       4.92727273       0.00000000       0.00000000      -0.28451028
2
Properties=species:S:1:pos:R:3:forces:R:3 energy=-0.8407953526278774 pbc="F F F"
Er       0.00000000       0.00000000       0.00000000       0.00000000       0.00000000       0.27477175
Er       0.00000000       0.00000000       4.98686869       0.00000000       0.00000000      -0.27477175
2
Properties=species:S:1:pos:R:3:forces:R:3 energy=-0.8246513724416384 pbc="F F F"
Er       0.00000000       0.00000000       0.00000000       0.00000000       0.00000000       0.26733825
Er       0.00000000       0.00000000       5.04646465       0.00000000       0.00000000      -0.26733825
2
Properties=species:S:1:pos:R:3:forces:R:3 energy=-0.8089131395764478 pbc="F F F"
Er       0.00000000       0.00000000       0.00000000       0.00000000       0.00000000       0.26085621
Er       0.00000000       0.00000000       5.10606061       0.00000000       0.00000000      -0.26085621
2
Properties=species:S:1:pos:R:3:forces:R:3 energy=-0.793564966964188 pbc="F F F"
Er       0.00000000       0.00000000       0.00000000       0.00000000       0.00000000       0.25398311
Er       0.00000000       0.00000000       5.16565657       0.00000000       0.00000000      -0.25398311
2
Properties=species:S:1:pos:R:3:forces:R:3 energy=-0.7786708788737488 pbc="F F F"
Er       0.00000000       0.00000000       0.00000000       0.00000000       0.00000000       0.24552639
Er       0.00000000       0.00000000       5.22525253       0.00000000       0.00000000      -0.24552639
2
Properties=species:S:1:pos:R:3:forces:R:3 energy=-0.7643509898806582 pbc="F F F"
Er       0.00000000       0.00000000       0.00000000       0.00000000       0.00000000       0.23458566
Er       0.00000000       0.00000000       5.28484848       0.00000000       0.00000000      -0.23458566
2
Properties=species:S:1:pos:R:3:forces:R:3 energy=-0.750770275019239 pbc="F F F"
Er       0.00000000       0.00000000       0.00000000       0.00000000       0.00000000       0.22063389
Er       0.00000000       0.00000000       5.34444444       0.00000000       0.00000000      -0.22063389
2
Properties=species:S:1:pos:R:3:forces:R:3 energy=-0.7381143552896372 pbc="F F F"
Er       0.00000000       0.00000000       0.00000000       0.00000000       0.00000000       0.20357761
Er       0.00000000       0.00000000       5.40404040       0.00000000       0.00000000      -0.20357761
2
Properties=species:S:1:pos:R:3:forces:R:3 energy=-0.7265580834261794 pbc="F F F"
Er       0.00000000       0.00000000       0.00000000       0.00000000       0.00000000       0.18375689
Er       0.00000000       0.00000000       5.46363636       0.00000000       0.00000000      -0.18375689
2
Properties=species:S:1:pos:R:3:forces:R:3 energy=-0.7162559958988145 pbc="F F F"
Er       0.00000000       0.00000000       0.00000000       0.00000000       0.00000000       0.16184998
Er       0.00000000       0.00000000       5.52323232       0.00000000       0.00000000      -0.16184998
2
Properties=species:S:1:pos:R:3:forces:R:3 energy=-0.7072930757247304 pbc="F F F"
Er       0.00000000       0.00000000       0.00000000       0.00000000       0.00000000       0.13880168
Er       0.00000000       0.00000000       5.58282828       0.00000000       0.00000000      -0.13880168
2
Properties=species:S:1:pos:R:3:forces:R:3 energy=-0.6997124864671559 pbc="F F F"
Er       0.00000000       0.00000000       0.00000000       0.00000000       0.00000000       0.11571653
Er       0.00000000       0.00000000       5.64242424       0.00000000       0.00000000      -0.11571653
2
Properties=species:S:1:pos:R:3:forces:R:3 energy=-0.6934774062557714 pbc="F F F"
Er       0.00000000       0.00000000       0.00000000       0.00000000       0.00000000       0.09369262
Er       0.00000000       0.00000000       5.70202020       0.00000000       0.00000000      -0.09369262
2
Properties=species:S:1:pos:R:3:forces:R:3 energy=-0.6885032194625796 pbc="F F F"
Er       0.00000000       0.00000000       0.00000000       0.00000000       0.00000000       0.07380046
Er       0.00000000       0.00000000       5.76161616       0.00000000       0.00000000      -0.07380046
2
Properties=species:S:1:pos:R:3:forces:R:3 energy=-0.6846214267974415 pbc="F F F"
Er       0.00000000       0.00000000       0.00000000       0.00000000       0.00000000       0.05698755
Er       0.00000000       0.00000000       5.82121212       0.00000000       0.00000000      -0.05698755
2
Properties=species:S:1:pos:R:3:forces:R:3 energy=-0.6816351752462277 pbc="F F F"
Er       0.00000000       0.00000000       0.00000000       0.00000000       0.00000000       0.04404754
Er       0.00000000       0.00000000       5.88080808       0.00000000       0.00000000      -0.04404754
2
Properties=species:S:1:pos:R:3:forces:R:3 energy=-0.6792810439899211 pbc="F F F"
Er       0.00000000       0.00000000       0.00000000       0.00000000       0.00000000       0.03560100
Er       0.00000000       0.00000000       5.94040404       0.00000000       0.00000000      -0.03560100
2
Properties=species:S:1:pos:R:3:forces:R:3 energy=-0.6772892298407053 pbc="F F F"
Er       0.00000000       0.00000000       0.00000000       0.00000000       0.00000000       0.03216203
Er       0.00000000       0.00000000       6.00000000       0.00000000       0.00000000      -0.03216203
