2
Properties=species:S:1:pos:R:3:forces:R:3 energy=2762.7180857906487 pbc="F F F"
F        0.00000000       0.00000000       0.00000000       0.00000000       0.00000000  -52858.56250000
F        0.00000000       0.00000000       0.10000000       0.00000000       0.00000000   52858.56250000
2
Properties=species:S:1:pos:R:3:forces:R:3 energy=1068.1946482906487 pbc="F F F"
F        0.00000000       0.00000000       0.00000000       0.00000000       0.00000000  -14265.52734375
F        0.00000000       0.00000000       0.15959596       0.00000000       0.00000000   14265.52734375
2
Properties=species:S:1:pos:R:3:forces:R:3 energy=542.4428172359612 pbc="F F F"
F        0.00000000       0.00000000       0.00000000       0.00000000       0.00000000   -5177.66015625
F        0.00000000       0.00000000       0.21919192       0.00000000       0.00000000    5177.66015625
2
Properties=species:S:1:pos:R:3:forces:R:3 energy=336.1637645027742 pbc="F F F"
F        0.00000000       0.00000000       0.00000000       0.00000000       0.00000000   -2268.09790039
F        0.00000000       0.00000000       0.27878788       0.00000000       0.00000000    2268.09790039
2
Properties=species:S:1:pos:R:3:forces:R:3 energy=233.13953354851478 pbc="F F F"
F        0.00000000       0.00000000       0.00000000       0.00000000       0.00000000   -1351.83239746
F        0.00000000       0.00000000       0.33838384       0.00000000       0.00000000    1351.83239746
2
Properties=species:S:1:pos:R:3:forces:R:3 energy=168.03343919449887 pbc="F F F"
F        0.00000000       0.00000000       0.00000000       0.00000000       0.00000000    -947.10656738
F        0.00000000       0.00000000       0.39797980       0.00000000       0.00000000     947.10656738
2
Properties=species:S:1:pos:R:3:forces:R:3 energy=114.39044146705484 pbc="F F F"
F        0.00000000       0.00000000       0.00000000       0.00000000       0.00000000    -822.04205322
F        0.00000000       0.00000000       0.45757576       0.00000000       0.00000000     822.04205322
2
Properties=species:S:1:pos:R:3:forces:R:3 energy=72.51244314193055 pbc="F F F"
F        0.00000000       0.00000000       0.00000000       0.00000000       0.00000000    -564.60296631
F        0.00000000       0.00000000       0.51717172       0.00000000       0.00000000     564.60296631
2
Properties=species:S:1:pos:R:3:forces:R:3 energy=46.473075514062614 pbc="F F F"
F        0.00000000       0.00000000       0.00000000       0.00000000       0.00000000    -344.48239136
F        0.00000000       0.00000000       0.57676768       0.00000000       0.00000000     344.48239136
2
Properties=species:S:1:pos:R:3:forces:R:3 energy=28.99706813289825 pbc="F F F"
F        0.00000000       0.00000000       0.00000000       0.00000000       0.00000000    -238.93698120
F        0.00000000       0.00000000       0.63636364       0.00000000       0.00000000     238.93698120
2
Properties=species:S:1:pos:R:3:forces:R:3 energy=17.114463662987976 pbc="F F F"
F        0.00000000       0.00000000       0.00000000       0.00000000       0.00000000    -170.67105103
F        0.00000000       0.00000000       0.69595960       0.00000000       0.00000000     170.67105103
2
Properties=species:S:1:pos:R:3:forces:R:3 energy=8.353588159072563 pbc="F F F"
F        0.00000000       0.00000000       0.00000000       0.00000000       0.00000000    -117.10784912
F        0.00000000       0.00000000       0.75555556       0.00000000       0.00000000     117.10784912
2
Properties=species:S:1:pos:R:3:forces:R:3 energy=3.40406166766778 pbc="F F F"
F        0.00000000       0.00000000       0.00000000       0.00000000       0.00000000     -55.29852295
F        0.00000000       0.00000000       0.81515152       0.00000000       0.00000000      55.29852295
2
Properties=species:S:1:pos:R:3:forces:R:3 energy=1.1680850404935639 pbc="F F F"
F        0.00000000       0.00000000       0.00000000       0.00000000       0.00000000     -21.35688782
F        0.00000000       0.00000000       0.87474747       0.00000000       0.00000000      21.35688782
2
Properties=species:S:1:pos:R:3:forces:R:3 energy=0.6738615704811086 pbc="F F F"
F        0.00000000       0.00000000       0.00000000       0.00000000       0.00000000       1.28540909
F        0.00000000       0.00000000       0.93434343       0.00000000       0.00000000      -1.28540909
2
Properties=species:S:1:pos:R:3:forces:R:3 energy=0.8055675653598742 pbc="F F F"
F        0.00000000       0.00000000       0.00000000       0.00000000       0.00000000      -0.25046834
F        0.00000000       0.00000000       0.99393939       0.00000000       0.00000000       0.25046834
2
Properties=species:S:1:pos:R:3:forces:R:3 energy=0.4699569790256348 pbc="F F F"
F        0.00000000       0.00000000       0.00000000       0.00000000       0.00000000     -10.63702965
F        0.00000000       0.00000000       1.05353535       0.00000000       0.00000000      10.63702965
2
Properties=species:S:1:pos:R:3:forces:R:3 energy=-0.2699711635963743 pbc="F F F"
F        0.00000000       0.00000000       0.00000000       0.00000000       0.00000000     -12.18453503
F        0.00000000       0.00000000       1.11313131       0.00000000       0.00000000      12.18453503
2
Properties=species:S:1:pos:R:3:forces:R:3 energy=-0.8555358732929587 pbc="F F F"
F        0.00000000       0.00000000       0.00000000       0.00000000       0.00000000      -7.52765703
F        0.00000000       0.00000000       1.17272727       0.00000000       0.00000000       7.52765703
2
Properties=species:S:1:pos:R:3:forces:R:3 energy=-1.2228522476261174 pbc="F F F"
F        0.00000000       0.00000000       0.00000000       0.00000000       0.00000000      -5.19536352
F        0.00000000       0.00000000       1.23232323       0.00000000       0.00000000       5.19536352
2
Properties=species:S:1:pos:R:3:forces:R:3 energy=-1.49063687283758 pbc="F F F"
F        0.00000000       0.00000000       0.00000000       0.00000000       0.00000000      -3.75030828
F        0.00000000       0.00000000       1.29191919       0.00000000       0.00000000       3.75030828
2
Properties=species:S:1:pos:R:3:forces:R:3 energy=-1.6619074670520646 pbc="F F F"
F        0.00000000       0.00000000       0.00000000       0.00000000       0.00000000      -1.95848548
F        0.00000000       0.00000000       1.35151515       0.00000000       0.00000000       1.95848548
2
Properties=species:S:1:pos:R:3:forces:R:3 energy=-1.725065301609619 pbc="F F F"
F        0.00000000       0.00000000       0.00000000       0.00000000       0.00000000      -0.20874767
F        0.00000000       0.00000000       1.41111111       0.00000000       0.00000000       0.20874767
2
Properties=species:S:1:pos:R:3:forces:R:3 energy=-1.695253154495722 pbc="F F F"
F        0.00000000       0.00000000       0.00000000       0.00000000       0.00000000       1.12253892
F        0.00000000       0.00000000       1.47070707       0.00000000       0.00000000      -1.12253892
2
Properties=species:S:1:pos:R:3:forces:R:3 energy=-1.6028030200397765 pbc="F F F"
F        0.00000000       0.00000000       0.00000000       0.00000000       0.00000000       1.87541389
F        0.00000000       0.00000000       1.53030303       0.00000000       0.00000000      -1.87541389
2
Properties=species:S:1:pos:R:3:forces:R:3 energy=-1.4844349189400619 pbc="F F F"
F        0.00000000       0.00000000       0.00000000       0.00000000       0.00000000       1.99437642
F        0.00000000       0.00000000       1.58989899       0.00000000       0.00000000      -1.99437642
2
Properties=species:S:1:pos:R:3:forces:R:3 energy=-1.375418040439207 pbc="F F F"
F        0.00000000       0.00000000       0.00000000       0.00000000       0.00000000       1.60067666
F        0.00000000       0.00000000       1.64949495       0.00000000       0.00000000      -1.60067666
2
Properties=species:S:1:pos:R:3:forces:R:3 energy=-1.2977374472082317 pbc="F F F"
F        0.00000000       0.00000000       0.00000000       0.00000000       0.00000000       1.00076151
F        0.00000000       0.00000000       1.70909091       0.00000000       0.00000000      -1.00076151
2
Properties=species:S:1:pos:R:3:forces:R:3 energy=-1.254132712427603 pbc="F F F"
F        0.00000000       0.00000000       0.00000000       0.00000000       0.00000000       0.49466130
F        0.00000000       0.00000000       1.76868687       0.00000000       0.00000000      -0.49466130
2
Properties=species:S:1:pos:R:3:forces:R:3 energy=-1.2343256732363648 pbc="F F F"
F        0.00000000       0.00000000       0.00000000       0.00000000       0.00000000       0.20740972
F        0.00000000       0.00000000       1.82828283       0.00000000       0.00000000      -0.20740972
2
Properties=species:S:1:pos:R:3:forces:R:3 energy=-1.2255758724478225 pbc="F F F"
F        0.00000000       0.00000000       0.00000000       0.00000000       0.00000000       0.11149319
F        0.00000000       0.00000000       1.88787879       0.00000000       0.00000000      -0.11149319
2
Properties=species:S:1:pos:R:3:forces:R:3 energy=-1.2189217953716027 pbc="F F F"
F        0.00000000       0.00000000       0.00000000       0.00000000       0.00000000       0.12262586
F        0.00000000       0.00000000       1.94747475       0.00000000       0.00000000      -0.12262586
2
Properties=species:S:1:pos:R:3:forces:R:3 energy=-1.2103136981096894 pbc="F F F"
F        0.00000000       0.00000000       0.00000000       0.00000000       0.00000000       0.16744447
F        0.00000000       0.00000000       2.00707071       0.00000000       0.00000000      -0.16744447
2
Properties=species:S:1:pos:R:3:forces:R:3 energy=-1.1991239707207948 pbc="F F F"
F        0.00000000       0.00000000       0.00000000       0.00000000       0.00000000       0.20511591
F        0.00000000       0.00000000       2.06666667       0.00000000       0.00000000      -0.20511591
2
Properties=species:S:1:pos:R:3:forces:R:3 energy=-1.1862973052995933 pbc="F F F"
F        0.00000000       0.00000000       0.00000000       0.00000000       0.00000000       0.22153954
F        0.00000000       0.00000000       2.12626263       0.00000000       0.00000000      -0.22153954
2
Properties=species:S:1:pos:R:3:forces:R:3 energy=-1.173137674963945 pbc="F F F"
F        0.00000000       0.00000000       0.00000000       0.00000000       0.00000000       0.21696693
F        0.00000000       0.00000000       2.18585859       0.00000000       0.00000000      -0.21696693
2
Properties=species:S:1:pos:R:3:forces:R:3 energy=-1.1607493398336557 pbc="F F F"
F        0.00000000       0.00000000       0.00000000       0.00000000       0.00000000       0.19667172
F        0.00000000       0.00000000       2.24545455       0.00000000       0.00000000      -0.19667172
2
Properties=species:S:1:pos:R:3:forces:R:3 energy=-1.1498962187747213 pbc="F F F"
F        0.00000000       0.00000000       0.00000000       0.00000000       0.00000000       0.16625325
F        0.00000000       0.00000000       2.30505051       0.00000000       0.00000000      -0.16625325
2
Properties=species:S:1:pos:R:3:forces:R:3 energy=-1.1410454542070512 pbc="F F F"
F        0.00000000       0.00000000       0.00000000       0.00000000       0.00000000       0.13012138
F        0.00000000       0.00000000       2.36464646       0.00000000       0.00000000      -0.13012138
2
Properties=species:S:1:pos:R:3:forces:R:3 energy=-1.134437294070741 pbc="F F F"
F        0.00000000       0.00000000       0.00000000       0.00000000       0.00000000       0.09143893
F        0.00000000       0.00000000       2.42424242       0.00000000       0.00000000      -0.09143893
2
Properties=species:S:1:pos:R:3:forces:R:3 energy=-1.1301506165256108 pbc="F F F"
F        0.00000000       0.00000000       0.00000000       0.00000000       0.00000000       0.05251842
F        0.00000000       0.00000000       2.48383838       0.00000000       0.00000000      -0.05251842
2
Properties=species:S:1:pos:R:3:forces:R:3 energy=-1.128145898752443 pbc="F F F"
F        0.00000000       0.00000000       0.00000000       0.00000000       0.00000000       0.01516571
F        0.00000000       0.00000000       2.54343434       0.00000000       0.00000000      -0.01516571
2
Properties=species:S:1:pos:R:3:forces:R:3 energy=-1.128282784276101 pbc="F F F"
F        0.00000000       0.00000000       0.00000000       0.00000000       0.00000000      -0.01913640
F        0.00000000       0.00000000       2.60303030       0.00000000       0.00000000       0.01913640
2
Properties=species:S:1:pos:R:3:forces:R:3 energy=-1.1303416863774471 pbc="F F F"
F        0.00000000       0.00000000       0.00000000       0.00000000       0.00000000      -0.04916848
F        0.00000000       0.00000000       2.66262626       0.00000000       0.00000000       0.04916848
2
Properties=species:S:1:pos:R:3:forces:R:3 energy=-1.1340390666812952 pbc="F F F"
F        0.00000000       0.00000000       0.00000000       0.00000000       0.00000000      -0.07398048
F        0.00000000       0.00000000       2.72222222       0.00000000       0.00000000       0.07398048
2
Properties=species:S:1:pos:R:3:forces:R:3 energy=-1.1390424685941594 pbc="F F F"
F        0.00000000       0.00000000       0.00000000       0.00000000       0.00000000      -0.09290844
F        0.00000000       0.00000000       2.78181818       0.00000000       0.00000000       0.09290844
2
Properties=species:S:1:pos:R:3:forces:R:3 energy=-1.144988521074798 pbc="F F F"
F        0.00000000       0.00000000       0.00000000       0.00000000       0.00000000      -0.10558256
F        0.00000000       0.00000000       2.84141414       0.00000000       0.00000000       0.10558256
2
Properties=species:S:1:pos:R:3:forces:R:3 energy=-1.15150104379505 pbc="F F F"
F        0.00000000       0.00000000       0.00000000       0.00000000       0.00000000      -0.11193146
F        0.00000000       0.00000000       2.90101010       0.00000000       0.00000000       0.11193146
2
Properties=species:S:1:pos:R:3:forces:R:3 energy=-1.1582084382328615 pbc="F F F"
F        0.00000000       0.00000000       0.00000000       0.00000000       0.00000000      -0.11217760
F        0.00000000       0.00000000       2.96060606       0.00000000       0.00000000       0.11217760
2
Properties=species:S:1:pos:R:3:forces:R:3 energy=-1.1647604629199841 pbc="F F F"
F        0.00000000       0.00000000       0.00000000       0.00000000       0.00000000      -0.10681827
F        0.00000000       0.00000000       3.02020202       0.00000000       0.00000000       0.10681827
2
Properties=species:S:1:pos:R:3:forces:R:3 energy=-1.1708435710505913 pbc="F F F"
F        0.00000000       0.00000000       0.00000000       0.00000000       0.00000000      -0.09658378
F        0.00000000       0.00000000       3.07979798       0.00000000       0.00000000       0.09658378
2
Properties=species:S:1:pos:R:3:forces:R:3 energy=-1.176193503900374 pbc="F F F"
F        0.00000000       0.00000000       0.00000000       0.00000000       0.00000000      -0.08237317
F        0.00000000       0.00000000       3.13939394       0.00000000       0.00000000       0.08237317
2
Properties=species:S:1:pos:R:3:forces:R:3 energy=-1.1806022778452232 pbc="F F F"
F        0.00000000       0.00000000       0.00000000       0.00000000       0.00000000      -0.06517053
F        0.00000000       0.00000000       3.19898990       0.00000000       0.00000000       0.06517053
2
Properties=species:S:1:pos:R:3:forces:R:3 energy=-1.1839211099485385 pbc="F F F"
F        0.00000000       0.00000000       0.00000000       0.00000000       0.00000000      -0.04595347
F        0.00000000       0.00000000       3.25858586       0.00000000       0.00000000       0.04595347
2
Properties=species:S:1:pos:R:3:forces:R:3 energy=-1.186057402288978 pbc="F F F"
F        0.00000000       0.00000000       0.00000000       0.00000000       0.00000000      -0.02561845
F        0.00000000       0.00000000       3.31818182       0.00000000       0.00000000       0.02561845
2
Properties=species:S:1:pos:R:3:forces:R:3 energy=-1.1869677846600881 pbc="F F F"
F        0.00000000       0.00000000       0.00000000       0.00000000       0.00000000      -0.00493204
F        0.00000000       0.00000000       3.37777778       0.00000000       0.00000000       0.00493204
2
Properties=species:S:1:pos:R:3:forces:R:3 energy=-1.1866508202329076 pbc="F F F"
F        0.00000000       0.00000000       0.00000000       0.00000000       0.00000000       0.01547555
F        0.00000000       0.00000000       3.43737374       0.00000000       0.00000000      -0.01547555
2
Properties=species:S:1:pos:R:3:forces:R:3 energy=-1.185139114776147 pbc="F F F"
F        0.00000000       0.00000000       0.00000000       0.00000000       0.00000000       0.03508938
F        0.00000000       0.00000000       3.49696970       0.00000000       0.00000000      -0.03508938
2
Properties=species:S:1:pos:R:3:forces:R:3 energy=-1.182493116189221 pbc="F F F"
F        0.00000000       0.00000000       0.00000000       0.00000000       0.00000000       0.05346197
F        0.00000000       0.00000000       3.55656566       0.00000000       0.00000000      -0.05346197
2
Properties=species:S:1:pos:R:3:forces:R:3 energy=-1.17879979844833 pbc="F F F"
F        0.00000000       0.00000000       0.00000000       0.00000000       0.00000000       0.07017434
F        0.00000000       0.00000000       3.61616162       0.00000000       0.00000000      -0.07017434
2
Properties=species:S:1:pos:R:3:forces:R:3 energy=-1.1741701700907126 pbc="F F F"
F        0.00000000       0.00000000       0.00000000       0.00000000       0.00000000       0.08481638
F        0.00000000       0.00000000       3.67575758       0.00000000       0.00000000      -0.08481638
2
Properties=species:S:1:pos:R:3:forces:R:3 energy=-1.1687392837181119 pbc="F F F"
F        0.00000000       0.00000000       0.00000000       0.00000000       0.00000000       0.09700094
F        0.00000000       0.00000000       3.73535354       0.00000000       0.00000000      -0.09700094
2
Properties=species:S:1:pos:R:3:forces:R:3 energy=-1.162663516951838 pbc="F F F"
F        0.00000000       0.00000000       0.00000000       0.00000000       0.00000000       0.10641424
F        0.00000000       0.00000000       3.79494949       0.00000000       0.00000000      -0.10641424
2
Properties=species:S:1:pos:R:3:forces:R:3 energy=-1.156114151267226 pbc="F F F"
F        0.00000000       0.00000000       0.00000000       0.00000000       0.00000000       0.11288230
F        0.00000000       0.00000000       3.85454545       0.00000000       0.00000000      -0.11288230
2
Properties=species:S:1:pos:R:3:forces:R:3 energy=-1.1492667817697764 pbc="F F F"
F        0.00000000       0.00000000       0.00000000       0.00000000       0.00000000       0.11644334
F        0.00000000       0.00000000       3.91414141       0.00000000       0.00000000      -0.11644334
2
Properties=species:S:1:pos:R:3:forces:R:3 energy=-1.1422870308893536 pbc="F F F"
F        0.00000000       0.00000000       0.00000000       0.00000000       0.00000000       0.11738951
F        0.00000000       0.00000000       3.97373737       0.00000000       0.00000000      -0.11738951
2
Properties=species:S:1:pos:R:3:forces:R:3 energy=-1.135316262272372 pbc="F F F"
F        0.00000000       0.00000000       0.00000000       0.00000000       0.00000000       0.11625495
F        0.00000000       0.00000000       4.03333333       0.00000000       0.00000000      -0.11625495
2
Properties=species:S:1:pos:R:3:forces:R:3 energy=-1.128458126367166 pbc="F F F"
F        0.00000000       0.00000000       0.00000000       0.00000000       0.00000000       0.11372216
F        0.00000000       0.00000000       4.09292929       0.00000000       0.00000000      -0.11372216
2
Properties=species:S:1:pos:R:3:forces:R:3 energy=-1.1217760686112583 pbc="F F F"
F        0.00000000       0.00000000       0.00000000       0.00000000       0.00000000       0.11045060
F        0.00000000       0.00000000       4.15252525       0.00000000       0.00000000      -0.11045060
2
Properties=species:S:1:pos:R:3:forces:R:3 energy=-1.1152990642475424 pbc="F F F"
F        0.00000000       0.00000000       0.00000000       0.00000000       0.00000000       0.10688400
F        0.00000000       0.00000000       4.21212121       0.00000000       0.00000000      -0.10688400
2
Properties=species:S:1:pos:R:3:forces:R:3 energy=-1.1090402243779236 pbc="F F F"
F        0.00000000       0.00000000       0.00000000       0.00000000       0.00000000       0.10310800
F        0.00000000       0.00000000       4.27171717       0.00000000       0.00000000      -0.10310800
2
Properties=species:S:1:pos:R:3:forces:R:3 energy=-1.1030189767117369 pbc="F F F"
F        0.00000000       0.00000000       0.00000000       0.00000000       0.00000000       0.09884999
F        0.00000000       0.00000000       4.33131313       0.00000000       0.00000000      -0.09884999
2
Properties=species:S:1:pos:R:3:forces:R:3 energy=-1.097276807527612 pbc="F F F"
F        0.00000000       0.00000000       0.00000000       0.00000000       0.00000000       0.09365149
F        0.00000000       0.00000000       4.39090909       0.00000000       0.00000000      -0.09365149
2
Properties=species:S:1:pos:R:3:forces:R:3 energy=-1.0918822721264285 pbc="F F F"
F        0.00000000       0.00000000       0.00000000       0.00000000       0.00000000       0.08716006
F        0.00000000       0.00000000       4.45050505       0.00000000       0.00000000      -0.08716006
2
Properties=species:S:1:pos:R:3:forces:R:3 energy=-1.0869138339898234 pbc="F F F"
F        0.00000000       0.00000000       0.00000000       0.00000000       0.00000000       0.07939299
F        0.00000000       0.00000000       4.51010101       0.00000000       0.00000000      -0.07939299
2
Properties=species:S:1:pos:R:3:forces:R:3 energy=-1.0824350674165673 pbc="F F F"
F        0.00000000       0.00000000       0.00000000       0.00000000       0.00000000       0.07083686
F        0.00000000       0.00000000       4.56969697       0.00000000       0.00000000      -0.07083686
2
Properties=species:S:1:pos:R:3:forces:R:3 energy=-1.0784697499086482 pbc="F F F"
F        0.00000000       0.00000000       0.00000000       0.00000000       0.00000000       0.06232397
F        0.00000000       0.00000000       4.62929293       0.00000000       0.00000000      -0.06232397
2
Properties=species:S:1:pos:R:3:forces:R:3 energy=-1.074987791762813 pbc="F F F"
F        0.00000000       0.00000000       0.00000000       0.00000000       0.00000000       0.05475129
F        0.00000000       0.00000000       4.68888889       0.00000000       0.00000000      -0.05475129
2
Properties=species:S:1:pos:R:3:forces:R:3 energy=-1.0719115579741993 pbc="F F F"
F        0.00000000       0.00000000       0.00000000       0.00000000       0.00000000       0.04878467
F        0.00000000       0.00000000       4.74848485       0.00000000       0.00000000      -0.04878467
2
Properties=species:S:1:pos:R:3:forces:R:3 energy=-1.0691357719804275 pbc="F F F"
F        0.00000000       0.00000000       0.00000000       0.00000000       0.00000000       0.04468359
F        0.00000000       0.00000000       4.80808081       0.00000000       0.00000000      -0.04468359
2
Properties=species:S:1:pos:R:3:forces:R:3 energy=-1.066551481134052 pbc="F F F"
F        0.00000000       0.00000000       0.00000000       0.00000000       0.00000000       0.04229541
F        0.00000000       0.00000000       4.86767677       0.00000000       0.00000000      -0.04229541
2
Properties=species:S:1:pos:R:3:forces:R:3 energy=-1.0640689414708475 pbc="F F F"
F        0.00000000       0.00000000       0.00000000       0.00000000       0.00000000       0.04118330
F        0.00000000       0.00000000       4.92727273       0.00000000       0.00000000      -0.04118330
2
Properties=species:S:1:pos:R:3:forces:R:3 energy=-1.061628107879803 pbc="F F F"
F        0.00000000       0.00000000       0.00000000       0.00000000       0.00000000       0.04080651
F        0.00000000       0.00000000       4.98686869       0.00000000       0.00000000      -0.04080651
2
Properties=species:S:1:pos:R:3:forces:R:3 energy=-1.0592007798208372 pbc="F F F"
F        0.00000000       0.00000000       0.00000000       0.00000000       0.00000000       0.04066913
F        0.00000000       0.00000000       5.04646465       0.00000000       0.00000000      -0.04066913
2
Properties=species:S:1:pos:R:3:forces:R:3 energy=-1.0567835656503441 pbc="F F F"
F        0.00000000       0.00000000       0.00000000       0.00000000       0.00000000       0.04040137
F        0.00000000       0.00000000       5.10606061       0.00000000       0.00000000      -0.04040137
2
Properties=species:S:1:pos:R:3:forces:R:3 energy=-1.054392161565241 pbc="F F F"
F        0.00000000       0.00000000       0.00000000       0.00000000       0.00000000       0.03976519
F        0.00000000       0.00000000       5.16565657       0.00000000       0.00000000      -0.03976519
2
Properties=species:S:1:pos:R:3:forces:R:3 energy=-1.052053601118251 pbc="F F F"
F        0.00000000       0.00000000       0.00000000       0.00000000       0.00000000       0.03862580
F        0.00000000       0.00000000       5.22525253       0.00000000       0.00000000      -0.03862580
2
Properties=species:S:1:pos:R:3:forces:R:3 energy=-1.0498000548251836 pbc="F F F"
F        0.00000000       0.00000000       0.00000000       0.00000000       0.00000000       0.03690779
F        0.00000000       0.00000000       5.28484848       0.00000000       0.00000000      -0.03690779
2
Properties=species:S:1:pos:R:3:forces:R:3 energy=-1.047666685090682 pbc="F F F"
F        0.00000000       0.00000000       0.00000000       0.00000000       0.00000000       0.03458285
F        0.00000000       0.00000000       5.34444444       0.00000000       0.00000000      -0.03458285
2
Properties=species:S:1:pos:R:3:forces:R:3 energy=-1.0456897368549531 pbc="F F F"
F        0.00000000       0.00000000       0.00000000       0.00000000       0.00000000       0.03166440
F        0.00000000       0.00000000       5.40404040       0.00000000       0.00000000      -0.03166440
2
Properties=species:S:1:pos:R:3:forces:R:3 energy=-1.0439026034149788 pbc="F F F"
F        0.00000000       0.00000000       0.00000000       0.00000000       0.00000000       0.02821763
F        0.00000000       0.00000000       5.46363636       0.00000000       0.00000000      -0.02821763
2
Properties=species:S:1:pos:R:3:forces:R:3 energy=-1.0423352294623685 pbc="F F F"
F        0.00000000       0.00000000       0.00000000       0.00000000       0.00000000       0.02435589
F        0.00000000       0.00000000       5.52323232       0.00000000       0.00000000      -0.02435589
2
Properties=species:S:1:pos:R:3:forces:R:3 energy=-1.041005408495864 pbc="F F F"
F        0.00000000       0.00000000       0.00000000       0.00000000       0.00000000       0.02023855
F        0.00000000       0.00000000       5.58282828       0.00000000       0.00000000      -0.02023855
2
Properties=species:S:1:pos:R:3:forces:R:3 energy=-1.0399243842720278 pbc="F F F"
F        0.00000000       0.00000000       0.00000000       0.00000000       0.00000000       0.01604789
F        0.00000000       0.00000000       5.64242424       0.00000000       0.00000000      -0.01604789
2
Properties=species:S:1:pos:R:3:forces:R:3 energy=-1.0390896984458573 pbc="F F F"
F        0.00000000       0.00000000       0.00000000       0.00000000       0.00000000       0.01197858
F        0.00000000       0.00000000       5.70202020       0.00000000       0.00000000      -0.01197858
2
Properties=species:S:1:pos:R:3:forces:R:3 energy=-1.03849043490095 pbc="F F F"
F        0.00000000       0.00000000       0.00000000       0.00000000       0.00000000       0.00822364
F        0.00000000       0.00000000       5.76161616       0.00000000       0.00000000      -0.00822364
2
Properties=species:S:1:pos:R:3:forces:R:3 energy=-1.0380998280063447 pbc="F F F"
F        0.00000000       0.00000000       0.00000000       0.00000000       0.00000000       0.00497421
F        0.00000000       0.00000000       5.82121212       0.00000000       0.00000000      -0.00497421
2
Properties=species:S:1:pos:R:3:forces:R:3 energy=-1.0378843225967724 pbc="F F F"
F        0.00000000       0.00000000       0.00000000       0.00000000       0.00000000       0.00241759
F        0.00000000       0.00000000       5.88080808       0.00000000       0.00000000      -0.00241759
2
Properties=species:S:1:pos:R:3:forces:R:3 energy=-1.0377939171168797 pbc="F F F"
F        0.00000000       0.00000000       0.00000000       0.00000000       0.00000000       0.00074254
F        0.00000000       0.00000000       5.94040404       0.00000000       0.00000000      -0.00074254
2
Properties=species:S:1:pos:R:3:forces:R:3 energy=-1.0377739652418982 pbc="F F F"
F        0.00000000       0.00000000       0.00000000       0.00000000       0.00000000       0.00013400
F        0.00000000       0.00000000       6.00000000       0.00000000       0.00000000      -0.00013400
