2
Properties=species:S:1:pos:R:3:forces:R:3 energy=21829.356675686726 pbc="F F F"
Ge       0.00000000       0.00000000       0.00000000       0.00000000       0.00000000 -500247.46875000
Ge       0.00000000       0.00000000       0.10000000       0.00000000       0.00000000  500247.46875000
2
Properties=species:S:1:pos:R:3:forces:R:3 energy=6768.111070217976 pbc="F F F"
Ge       0.00000000       0.00000000       0.00000000       0.00000000       0.00000000 -115683.63281250
Ge       0.00000000       0.00000000       0.15959596       0.00000000       0.00000000  115683.63281250
2
Properties=species:S:1:pos:R:3:forces:R:3 energy=2702.428453030476 pbc="F F F"
Ge       0.00000000       0.00000000       0.00000000       0.00000000       0.00000000  -37822.56640625
Ge       0.00000000       0.00000000       0.21919192       0.00000000       0.00000000   37822.56640625
2
Properties=species:S:1:pos:R:3:forces:R:3 energy=1247.2460799836008 pbc="F F F"
Ge       0.00000000       0.00000000       0.00000000       0.00000000       0.00000000  -15071.66308594
Ge       0.00000000       0.00000000       0.27878788       0.00000000       0.00000000   15071.66308594
2
Properties=species:S:1:pos:R:3:forces:R:3 energy=633.3209090851632 pbc="F F F"
Ge       0.00000000       0.00000000       0.00000000       0.00000000       0.00000000   -6786.46826172
Ge       0.00000000       0.00000000       0.33838384       0.00000000       0.00000000    6786.46826172
2
Properties=species:S:1:pos:R:3:forces:R:3 energy=346.4126144169323 pbc="F F F"
Ge       0.00000000       0.00000000       0.00000000       0.00000000       0.00000000   -3306.52563477
Ge       0.00000000       0.00000000       0.39797980       0.00000000       0.00000000    3306.52563477
2
Properties=species:S:1:pos:R:3:forces:R:3 energy=203.05540617448264 pbc="F F F"
Ge       0.00000000       0.00000000       0.00000000       0.00000000       0.00000000   -1699.04028320
Ge       0.00000000       0.00000000       0.45757576       0.00000000       0.00000000    1699.04028320
2
Properties=species:S:1:pos:R:3:forces:R:3 energy=128.0912948717002 pbc="F F F"
Ge       0.00000000       0.00000000       0.00000000       0.00000000       0.00000000    -905.73107910
Ge       0.00000000       0.00000000       0.51717172       0.00000000       0.00000000     905.73107910
2
Properties=species:S:1:pos:R:3:forces:R:3 energy=87.61470953420176 pbc="F F F"
Ge       0.00000000       0.00000000       0.00000000       0.00000000       0.00000000    -496.45465088
Ge       0.00000000       0.00000000       0.57676768       0.00000000       0.00000000     496.45465088
2
Properties=species:S:1:pos:R:3:forces:R:3 energy=65.10107588220215 pbc="F F F"
Ge       0.00000000       0.00000000       0.00000000       0.00000000       0.00000000    -282.44189453
Ge       0.00000000       0.00000000       0.63636364       0.00000000       0.00000000     282.44189453
2
Properties=species:S:1:pos:R:3:forces:R:3 energy=51.82205379211817 pbc="F F F"
Ge       0.00000000       0.00000000       0.00000000       0.00000000       0.00000000    -176.93724060
Ge       0.00000000       0.00000000       0.69595960       0.00000000       0.00000000     176.93724060
2
Properties=species:S:1:pos:R:3:forces:R:3 energy=42.7765103115332 pbc="F F F"
Ge       0.00000000       0.00000000       0.00000000       0.00000000       0.00000000    -132.23381042
Ge       0.00000000       0.00000000       0.75555556       0.00000000       0.00000000     132.23381042
2
Properties=species:S:1:pos:R:3:forces:R:3 energy=36.308561679895156 pbc="F F F"
Ge       0.00000000       0.00000000       0.00000000       0.00000000       0.00000000     -75.00306702
Ge       0.00000000       0.00000000       0.81515152       0.00000000       0.00000000      75.00306702
2
Properties=species:S:1:pos:R:3:forces:R:3 energy=33.31845360488962 pbc="F F F"
Ge       0.00000000       0.00000000       0.00000000       0.00000000       0.00000000     -53.83869171
Ge       0.00000000       0.00000000       0.87474747       0.00000000       0.00000000      53.83869171
2
Properties=species:S:1:pos:R:3:forces:R:3 energy=28.473021903106932 pbc="F F F"
Ge       0.00000000       0.00000000       0.00000000       0.00000000       0.00000000    -101.70455933
Ge       0.00000000       0.00000000       0.93434343       0.00000000       0.00000000     101.70455933
2
Properties=species:S:1:pos:R:3:forces:R:3 energy=21.87668062410959 pbc="F F F"
Ge       0.00000000       0.00000000       0.00000000       0.00000000       0.00000000    -115.12722778
Ge       0.00000000       0.00000000       0.99393939       0.00000000       0.00000000     115.12722778
2
Properties=species:S:1:pos:R:3:forces:R:3 energy=15.255320941367458 pbc="F F F"
Ge       0.00000000       0.00000000       0.00000000       0.00000000       0.00000000    -103.48806763
Ge       0.00000000       0.00000000       1.05353535       0.00000000       0.00000000     103.48806763
2
Properties=species:S:1:pos:R:3:forces:R:3 energy=9.858298250238205 pbc="F F F"
Ge       0.00000000       0.00000000       0.00000000       0.00000000       0.00000000     -76.05126190
Ge       0.00000000       0.00000000       1.11313131       0.00000000       0.00000000      76.05126190
2
Properties=species:S:1:pos:R:3:forces:R:3 energy=6.217563602714695 pbc="F F F"
Ge       0.00000000       0.00000000       0.00000000       0.00000000       0.00000000     -47.30242920
Ge       0.00000000       0.00000000       1.17272727       0.00000000       0.00000000      47.30242920
2
Properties=species:S:1:pos:R:3:forces:R:3 energy=3.9797826796230007 pbc="F F F"
Ge       0.00000000       0.00000000       0.00000000       0.00000000       0.00000000     -29.96542358
Ge       0.00000000       0.00000000       1.23232323       0.00000000       0.00000000      29.96542358
2
Properties=species:S:1:pos:R:3:forces:R:3 energy=2.4565460471323783 pbc="F F F"
Ge       0.00000000       0.00000000       0.00000000       0.00000000       0.00000000     -22.10848999
Ge       0.00000000       0.00000000       1.29191919       0.00000000       0.00000000      22.10848999
2
Properties=species:S:1:pos:R:3:forces:R:3 energy=1.2800164409229489 pbc="F F F"
Ge       0.00000000       0.00000000       0.00000000       0.00000000       0.00000000     -17.65193367
Ge       0.00000000       0.00000000       1.35151515       0.00000000       0.00000000      17.65193367
2
Properties=species:S:1:pos:R:3:forces:R:3 energy=0.3328925743119423 pbc="F F F"
Ge       0.00000000       0.00000000       0.00000000       0.00000000       0.00000000     -14.25486565
Ge       0.00000000       0.00000000       1.41111111       0.00000000       0.00000000      14.25486565
2
Properties=species:S:1:pos:R:3:forces:R:3 energy=-0.4346320450110134 pbc="F F F"
Ge       0.00000000       0.00000000       0.00000000       0.00000000       0.00000000     -11.64680386
Ge       0.00000000       0.00000000       1.47070707       0.00000000       0.00000000      11.64680386
2
Properties=species:S:1:pos:R:3:forces:R:3 energy=-1.0723474458030438 pbc="F F F"
Ge       0.00000000       0.00000000       0.00000000       0.00000000       0.00000000      -9.88272095
Ge       0.00000000       0.00000000       1.53030303       0.00000000       0.00000000       9.88272095
2
Properties=species:S:1:pos:R:3:forces:R:3 energy=-1.6244642537572742 pbc="F F F"
Ge       0.00000000       0.00000000       0.00000000       0.00000000       0.00000000      -8.71466351
Ge       0.00000000       0.00000000       1.58989899       0.00000000       0.00000000       8.71466351
2
Properties=species:S:1:pos:R:3:forces:R:3 energy=-2.115961727622009 pbc="F F F"
Ge       0.00000000       0.00000000       0.00000000       0.00000000       0.00000000      -7.79831362
Ge       0.00000000       0.00000000       1.64949495       0.00000000       0.00000000       7.79831362
2
Properties=species:S:1:pos:R:3:forces:R:3 energy=-2.554577999471466 pbc="F F F"
Ge       0.00000000       0.00000000       0.00000000       0.00000000       0.00000000      -6.91861916
Ge       0.00000000       0.00000000       1.70909091       0.00000000       0.00000000       6.91861916
2
Properties=species:S:1:pos:R:3:forces:R:3 energy=-2.9400741101969095 pbc="F F F"
Ge       0.00000000       0.00000000       0.00000000       0.00000000       0.00000000      -6.01440144
Ge       0.00000000       0.00000000       1.76868687       0.00000000       0.00000000       6.01440144
2
Properties=species:S:1:pos:R:3:forces:R:3 energy=-3.2711602549631014 pbc="F F F"
Ge       0.00000000       0.00000000       0.00000000       0.00000000       0.00000000      -5.09567213
Ge       0.00000000       0.00000000       1.82828283       0.00000000       0.00000000       5.09567213
2
Properties=species:S:1:pos:R:3:forces:R:3 energy=-3.547465929794132 pbc="F F F"
Ge       0.00000000       0.00000000       0.00000000       0.00000000       0.00000000      -4.17849159
Ge       0.00000000       0.00000000       1.88787879       0.00000000       0.00000000       4.17849159
2
Properties=species:S:1:pos:R:3:forces:R:3 energy=-3.769627466037992 pbc="F F F"
Ge       0.00000000       0.00000000       0.00000000       0.00000000       0.00000000      -3.28348064
Ge       0.00000000       0.00000000       1.94747475       0.00000000       0.00000000       3.28348064
2
Properties=species:S:1:pos:R:3:forces:R:3 energy=-3.9400385340397217 pbc="F F F"
Ge       0.00000000       0.00000000       0.00000000       0.00000000       0.00000000      -2.44955277
Ge       0.00000000       0.00000000       2.00707071       0.00000000       0.00000000       2.44955277
2
Properties=species:S:1:pos:R:3:forces:R:3 energy=-4.063712156185567 pbc="F F F"
Ge       0.00000000       0.00000000       0.00000000       0.00000000       0.00000000      -1.72147393
Ge       0.00000000       0.00000000       2.06666667       0.00000000       0.00000000       1.72147393
2
Properties=species:S:1:pos:R:3:forces:R:3 energy=-4.14784722074449 pbc="F F F"
Ge       0.00000000       0.00000000       0.00000000       0.00000000       0.00000000      -1.12434757
Ge       0.00000000       0.00000000       2.12626263       0.00000000       0.00000000       1.12434757
2
Properties=species:S:1:pos:R:3:forces:R:3 energy=-4.2002324278721845 pbc="F F F"
Ge       0.00000000       0.00000000       0.00000000       0.00000000       0.00000000      -0.65265608
Ge       0.00000000       0.00000000       2.18585859       0.00000000       0.00000000       0.65265608
2
Properties=species:S:1:pos:R:3:forces:R:3 energy=-4.22753781058364 pbc="F F F"
Ge       0.00000000       0.00000000       0.00000000       0.00000000       0.00000000      -0.27618873
Ge       0.00000000       0.00000000       2.24545455       0.00000000       0.00000000       0.27618873
2
Properties=species:S:1:pos:R:3:forces:R:3 energy=-4.23421646073646 pbc="F F F"
Ge       0.00000000       0.00000000       0.00000000       0.00000000       0.00000000       0.04654667
Ge       0.00000000       0.00000000       2.30505051       0.00000000       0.00000000      -0.04654667
2
Properties=species:S:1:pos:R:3:forces:R:3 energy=-4.2223106210342225 pbc="F F F"
Ge       0.00000000       0.00000000       0.00000000       0.00000000       0.00000000       0.35256580
Ge       0.00000000       0.00000000       2.36464646       0.00000000       0.00000000      -0.35256580
2
Properties=species:S:1:pos:R:3:forces:R:3 energy=-4.1921094367048 pbc="F F F"
Ge       0.00000000       0.00000000       0.00000000       0.00000000       0.00000000       0.66210473
Ge       0.00000000       0.00000000       2.42424242       0.00000000       0.00000000      -0.66210473
2
Properties=species:S:1:pos:R:3:forces:R:3 energy=-4.14331150817079 pbc="F F F"
Ge       0.00000000       0.00000000       0.00000000       0.00000000       0.00000000       0.97520089
Ge       0.00000000       0.00000000       2.48383838       0.00000000       0.00000000      -0.97520089
2
Properties=species:S:1:pos:R:3:forces:R:3 energy=-4.076099534460609 pbc="F F F"
Ge       0.00000000       0.00000000       0.00000000       0.00000000       0.00000000       1.27669144
Ge       0.00000000       0.00000000       2.54343434       0.00000000       0.00000000      -1.27669144
2
Properties=species:S:1:pos:R:3:forces:R:3 energy=-3.991800343222996 pbc="F F F"
Ge       0.00000000       0.00000000       0.00000000       0.00000000       0.00000000       1.54498446
Ge       0.00000000       0.00000000       2.60303030       0.00000000       0.00000000      -1.54498446
2
Properties=species:S:1:pos:R:3:forces:R:3 energy=-3.89301680010258 pbc="F F F"
Ge       0.00000000       0.00000000       0.00000000       0.00000000       0.00000000       1.75976777
Ge       0.00000000       0.00000000       2.66262626       0.00000000       0.00000000      -1.75976777
2
Properties=species:S:1:pos:R:3:forces:R:3 energy=-3.783400761458011 pbc="F F F"
Ge       0.00000000       0.00000000       0.00000000       0.00000000       0.00000000       1.90687227
Ge       0.00000000       0.00000000       2.72222222       0.00000000       0.00000000      -1.90687227
2
Properties=species:S:1:pos:R:3:forces:R:3 energy=-3.667191974014259 pbc="F F F"
Ge       0.00000000       0.00000000       0.00000000       0.00000000       0.00000000       1.98093152
Ge       0.00000000       0.00000000       2.78181818       0.00000000       0.00000000      -1.98093152
2
Properties=species:S:1:pos:R:3:forces:R:3 energy=-3.548647474625934 pbc="F F F"
Ge       0.00000000       0.00000000       0.00000000       0.00000000       0.00000000       1.98698425
Ge       0.00000000       0.00000000       2.84141414       0.00000000       0.00000000      -1.98698425
2
Properties=species:S:1:pos:R:3:forces:R:3 energy=-3.431420246521303 pbc="F F F"
Ge       0.00000000       0.00000000       0.00000000       0.00000000       0.00000000       1.93979979
Ge       0.00000000       0.00000000       2.90101010       0.00000000       0.00000000      -1.93979979
2
Properties=species:S:1:pos:R:3:forces:R:3 energy=-3.3181173639758805 pbc="F F F"
Ge       0.00000000       0.00000000       0.00000000       0.00000000       0.00000000       1.85839415
Ge       0.00000000       0.00000000       2.96060606       0.00000000       0.00000000      -1.85839415
2
Properties=species:S:1:pos:R:3:forces:R:3 energy=-3.2102718663921546 pbc="F F F"
Ge       0.00000000       0.00000000       0.00000000       0.00000000       0.00000000       1.75879800
Ge       0.00000000       0.00000000       3.02020202       0.00000000       0.00000000      -1.75879800
2
Properties=species:S:1:pos:R:3:forces:R:3 energy=-3.108624894854507 pbc="F F F"
Ge       0.00000000       0.00000000       0.00000000       0.00000000       0.00000000       1.65188169
Ge       0.00000000       0.00000000       3.07979798       0.00000000       0.00000000      -1.65188169
2
Properties=species:S:1:pos:R:3:forces:R:3 energy=-3.0133871142123083 pbc="F F F"
Ge       0.00000000       0.00000000       0.00000000       0.00000000       0.00000000       1.54456699
Ge       0.00000000       0.00000000       3.13939394       0.00000000       0.00000000      -1.54456699
2
Properties=species:S:1:pos:R:3:forces:R:3 energy=-2.924446924484311 pbc="F F F"
Ge       0.00000000       0.00000000       0.00000000       0.00000000       0.00000000       1.44112313
Ge       0.00000000       0.00000000       3.19898990       0.00000000       0.00000000      -1.44112313
2
Properties=species:S:1:pos:R:3:forces:R:3 energy=-2.8414797094547737 pbc="F F F"
Ge       0.00000000       0.00000000       0.00000000       0.00000000       0.00000000       1.34460473
Ge       0.00000000       0.00000000       3.25858586       0.00000000       0.00000000      -1.34460473
2
Properties=species:S:1:pos:R:3:forces:R:3 energy=-2.763985204648896 pbc="F F F"
Ge       0.00000000       0.00000000       0.00000000       0.00000000       0.00000000       1.25796866
Ge       0.00000000       0.00000000       3.31818182       0.00000000       0.00000000      -1.25796866
2
Properties=species:S:1:pos:R:3:forces:R:3 energy=-2.691285260563354 pbc="F F F"
Ge       0.00000000       0.00000000       0.00000000       0.00000000       0.00000000       1.18413806
Ge       0.00000000       0.00000000       3.37777778       0.00000000       0.00000000      -1.18413806
2
Properties=species:S:1:pos:R:3:forces:R:3 energy=-2.6225484044844234 pbc="F F F"
Ge       0.00000000       0.00000000       0.00000000       0.00000000       0.00000000       1.12517619
Ge       0.00000000       0.00000000       3.43737374       0.00000000       0.00000000      -1.12517619
2
Properties=species:S:1:pos:R:3:forces:R:3 energy=-2.5568717489657553 pbc="F F F"
Ge       0.00000000       0.00000000       0.00000000       0.00000000       0.00000000       1.08130968
Ge       0.00000000       0.00000000       3.49696970       0.00000000       0.00000000      -1.08130968
2
Properties=species:S:1:pos:R:3:forces:R:3 energy=-2.4934041105301583 pbc="F F F"
Ge       0.00000000       0.00000000       0.00000000       0.00000000       0.00000000       1.05048847
Ge       0.00000000       0.00000000       3.55656566       0.00000000       0.00000000      -1.05048847
2
Properties=species:S:1:pos:R:3:forces:R:3 energy=-2.4314805622876414 pbc="F F F"
Ge       0.00000000       0.00000000       0.00000000       0.00000000       0.00000000       1.02875018
Ge       0.00000000       0.00000000       3.61616162       0.00000000       0.00000000      -1.02875018
2
Properties=species:S:1:pos:R:3:forces:R:3 energy=-2.3707039199085593 pbc="F F F"
Ge       0.00000000       0.00000000       0.00000000       0.00000000       0.00000000       1.01116884
Ge       0.00000000       0.00000000       3.67575758       0.00000000       0.00000000      -1.01116884
2
Properties=species:S:1:pos:R:3:forces:R:3 energy=-2.3109704289776962 pbc="F F F"
Ge       0.00000000       0.00000000       0.00000000       0.00000000       0.00000000       0.99299628
Ge       0.00000000       0.00000000       3.73535354       0.00000000       0.00000000      -0.99299628
2
Properties=species:S:1:pos:R:3:forces:R:3 energy=-2.2524321573832964 pbc="F F F"
Ge       0.00000000       0.00000000       0.00000000       0.00000000       0.00000000       0.97054809
Ge       0.00000000       0.00000000       3.79494949       0.00000000       0.00000000      -0.97054809
2
Properties=species:S:1:pos:R:3:forces:R:3 energy=-2.1954181991446187 pbc="F F F"
Ge       0.00000000       0.00000000       0.00000000       0.00000000       0.00000000       0.94162697
Ge       0.00000000       0.00000000       3.85454545       0.00000000       0.00000000      -0.94162697
2
Properties=species:S:1:pos:R:3:forces:R:3 energy=-2.1403419897732916 pbc="F F F"
Ge       0.00000000       0.00000000       0.00000000       0.00000000       0.00000000       0.90550756
Ge       0.00000000       0.00000000       3.91414141       0.00000000       0.00000000      -0.90550756
2
Properties=species:S:1:pos:R:3:forces:R:3 energy=-2.0876239184375875 pbc="F F F"
Ge       0.00000000       0.00000000       0.00000000       0.00000000       0.00000000       0.86259651
Ge       0.00000000       0.00000000       3.97373737       0.00000000       0.00000000      -0.86259651
2
Properties=species:S:1:pos:R:3:forces:R:3 energy=-2.0376405036233893 pbc="F F F"
Ge       0.00000000       0.00000000       0.00000000       0.00000000       0.00000000       0.81399536
Ge       0.00000000       0.00000000       4.03333333       0.00000000       0.00000000      -0.81399536
2
Properties=species:S:1:pos:R:3:forces:R:3 energy=-1.990687902420298 pbc="F F F"
Ge       0.00000000       0.00000000       0.00000000       0.00000000       0.00000000       0.76109117
Ge       0.00000000       0.00000000       4.09292929       0.00000000       0.00000000      -0.76109117
2
Properties=species:S:1:pos:R:3:forces:R:3 energy=-1.9469812511187412 pbc="F F F"
Ge       0.00000000       0.00000000       0.00000000       0.00000000       0.00000000       0.70531112
Ge       0.00000000       0.00000000       4.15252525       0.00000000       0.00000000      -0.70531112
2
Properties=species:S:1:pos:R:3:forces:R:3 energy=-1.9066516026143603 pbc="F F F"
Ge       0.00000000       0.00000000       0.00000000       0.00000000       0.00000000       0.64799201
Ge       0.00000000       0.00000000       4.21212121       0.00000000       0.00000000      -0.64799201
2
Properties=species:S:1:pos:R:3:forces:R:3 energy=-1.8697522750106246 pbc="F F F"
Ge       0.00000000       0.00000000       0.00000000       0.00000000       0.00000000       0.59035861
Ge       0.00000000       0.00000000       4.27171717       0.00000000       0.00000000      -0.59035861
2
Properties=species:S:1:pos:R:3:forces:R:3 energy=-1.8362686541230222 pbc="F F F"
Ge       0.00000000       0.00000000       0.00000000       0.00000000       0.00000000       0.53355896
Ge       0.00000000       0.00000000       4.33131313       0.00000000       0.00000000      -0.53355896
2
Properties=species:S:1:pos:R:3:forces:R:3 energy=-1.8061185340998667 pbc="F F F"
Ge       0.00000000       0.00000000       0.00000000       0.00000000       0.00000000       0.47866750
Ge       0.00000000       0.00000000       4.39090909       0.00000000       0.00000000      -0.47866750
2
Properties=species:S:1:pos:R:3:forces:R:3 energy=-1.7791571578905478 pbc="F F F"
Ge       0.00000000       0.00000000       0.00000000       0.00000000       0.00000000       0.42668858
Ge       0.00000000       0.00000000       4.45050505       0.00000000       0.00000000      -0.42668858
2
Properties=species:S:1:pos:R:3:forces:R:3 energy=-1.7551841650624194 pbc="F F F"
Ge       0.00000000       0.00000000       0.00000000       0.00000000       0.00000000       0.37855473
Ge       0.00000000       0.00000000       4.51010101       0.00000000       0.00000000      -0.37855473
2
Properties=species:S:1:pos:R:3:forces:R:3 energy=-1.7339442393643176 pbc="F F F"
Ge       0.00000000       0.00000000       0.00000000       0.00000000       0.00000000       0.33505595
Ge       0.00000000       0.00000000       4.56969697       0.00000000       0.00000000      -0.33505595
2
Properties=species:S:1:pos:R:3:forces:R:3 energy=-1.715143732670786 pbc="F F F"
Ge       0.00000000       0.00000000       0.00000000       0.00000000       0.00000000       0.29678559
Ge       0.00000000       0.00000000       4.62929293       0.00000000       0.00000000      -0.29678559
2
Properties=species:S:1:pos:R:3:forces:R:3 energy=-1.698460269081422 pbc="F F F"
Ge       0.00000000       0.00000000       0.00000000       0.00000000       0.00000000       0.26403612
Ge       0.00000000       0.00000000       4.68888889       0.00000000       0.00000000      -0.26403612
2
Properties=species:S:1:pos:R:3:forces:R:3 energy=-1.68356470160491 pbc="F F F"
Ge       0.00000000       0.00000000       0.00000000       0.00000000       0.00000000       0.23671345
Ge       0.00000000       0.00000000       4.74848485       0.00000000       0.00000000      -0.23671345
2
Properties=species:S:1:pos:R:3:forces:R:3 energy=-1.6701476883269946 pbc="F F F"
Ge       0.00000000       0.00000000       0.00000000       0.00000000       0.00000000       0.21432805
Ge       0.00000000       0.00000000       4.80808081       0.00000000       0.00000000      -0.21432805
2
Properties=species:S:1:pos:R:3:forces:R:3 energy=-1.6579369820932397 pbc="F F F"
Ge       0.00000000       0.00000000       0.00000000       0.00000000       0.00000000       0.19604476
Ge       0.00000000       0.00000000       4.86767677       0.00000000       0.00000000      -0.19604476
2
Properties=species:S:1:pos:R:3:forces:R:3 energy=-1.6467192731514626 pbc="F F F"
Ge       0.00000000       0.00000000       0.00000000       0.00000000       0.00000000       0.18083088
Ge       0.00000000       0.00000000       4.92727273       0.00000000       0.00000000      -0.18083088
2
Properties=species:S:1:pos:R:3:forces:R:3 energy=-1.636343558690065 pbc="F F F"
Ge       0.00000000       0.00000000       0.00000000       0.00000000       0.00000000       0.16761708
Ge       0.00000000       0.00000000       4.98686869       0.00000000       0.00000000      -0.16761708
2
Properties=species:S:1:pos:R:3:forces:R:3 energy=-1.6267213159002967 pbc="F F F"
Ge       0.00000000       0.00000000       0.00000000       0.00000000       0.00000000       0.15543745
Ge       0.00000000       0.00000000       5.04646465       0.00000000       0.00000000      -0.15543745
2
Properties=species:S:1:pos:R:3:forces:R:3 energy=-1.6178121778545784 pbc="F F F"
Ge       0.00000000       0.00000000       0.00000000       0.00000000       0.00000000       0.14353716
Ge       0.00000000       0.00000000       5.10606061       0.00000000       0.00000000      -0.14353716
2
Properties=species:S:1:pos:R:3:forces:R:3 energy=-1.6096162989442773 pbc="F F F"
Ge       0.00000000       0.00000000       0.00000000       0.00000000       0.00000000       0.13140385
Ge       0.00000000       0.00000000       5.16565657       0.00000000       0.00000000      -0.13140385
2
Properties=species:S:1:pos:R:3:forces:R:3 energy=-1.6021588545042436 pbc="F F F"
Ge       0.00000000       0.00000000       0.00000000       0.00000000       0.00000000       0.11879095
Ge       0.00000000       0.00000000       5.22525253       0.00000000       0.00000000      -0.11879095
2
Properties=species:S:1:pos:R:3:forces:R:3 energy=-1.5954679011470867 pbc="F F F"
Ge       0.00000000       0.00000000       0.00000000       0.00000000       0.00000000       0.10569143
Ge       0.00000000       0.00000000       5.28484848       0.00000000       0.00000000      -0.10569143
2
Properties=species:S:1:pos:R:3:forces:R:3 energy=-1.5895670863655762 pbc="F F F"
Ge       0.00000000       0.00000000       0.00000000       0.00000000       0.00000000       0.09230638
Ge       0.00000000       0.00000000       5.34444444       0.00000000       0.00000000      -0.09230638
2
Properties=species:S:1:pos:R:3:forces:R:3 energy=-1.58446431018689 pbc="F F F"
Ge       0.00000000       0.00000000       0.00000000       0.00000000       0.00000000       0.07897875
Ge       0.00000000       0.00000000       5.40404040       0.00000000       0.00000000      -0.07897875
2
Properties=species:S:1:pos:R:3:forces:R:3 energy=-1.580143335756878 pbc="F F F"
Ge       0.00000000       0.00000000       0.00000000       0.00000000       0.00000000       0.06611945
Ge       0.00000000       0.00000000       5.46363636       0.00000000       0.00000000      -0.06611945
2
Properties=species:S:1:pos:R:3:forces:R:3 energy=-1.5765672780876785 pbc="F F F"
Ge       0.00000000       0.00000000       0.00000000       0.00000000       0.00000000       0.05411784
Ge       0.00000000       0.00000000       5.52323232       0.00000000       0.00000000      -0.05411784
2
Properties=species:S:1:pos:R:3:forces:R:3 energy=-1.5736710118850994 pbc="F F F"
Ge       0.00000000       0.00000000       0.00000000       0.00000000       0.00000000       0.04327974
Ge       0.00000000       0.00000000       5.58282828       0.00000000       0.00000000      -0.04327974
2
Properties=species:S:1:pos:R:3:forces:R:3 energy=-1.5713818050511303 pbc="F F F"
Ge       0.00000000       0.00000000       0.00000000       0.00000000       0.00000000       0.03379083
Ge       0.00000000       0.00000000       5.64242424       0.00000000       0.00000000      -0.03379083
2
Properties=species:S:1:pos:R:3:forces:R:3 energy=-1.5696146073331612 pbc="F F F"
Ge       0.00000000       0.00000000       0.00000000       0.00000000       0.00000000       0.02572046
Ge       0.00000000       0.00000000       5.70202020       0.00000000       0.00000000      -0.02572046
2
Properties=species:S:1:pos:R:3:forces:R:3 energy=-1.568288027536603 pbc="F F F"
Ge       0.00000000       0.00000000       0.00000000       0.00000000       0.00000000       0.01906756
Ge       0.00000000       0.00000000       5.76161616       0.00000000       0.00000000      -0.01906756
2
Properties=species:S:1:pos:R:3:forces:R:3 energy=-1.567315295793637 pbc="F F F"
Ge       0.00000000       0.00000000       0.00000000       0.00000000       0.00000000       0.01378641
Ge       0.00000000       0.00000000       5.82121212       0.00000000       0.00000000      -0.01378641
2
Properties=species:S:1:pos:R:3:forces:R:3 energy=-1.5666183540180485 pbc="F F F"
Ge       0.00000000       0.00000000       0.00000000       0.00000000       0.00000000       0.00985535
Ge       0.00000000       0.00000000       5.88080808       0.00000000       0.00000000      -0.00985535
2
Properties=species:S:1:pos:R:3:forces:R:3 energy=-1.5661130731613664 pbc="F F F"
Ge       0.00000000       0.00000000       0.00000000       0.00000000       0.00000000       0.00729258
Ge       0.00000000       0.00000000       5.94040404       0.00000000       0.00000000      -0.00729258
2
Properties=species:S:1:pos:R:3:forces:R:3 energy=-1.5657198929339442 pbc="F F F"
Ge       0.00000000       0.00000000       0.00000000       0.00000000       0.00000000       0.00616144
Ge       0.00000000       0.00000000       6.00000000       0.00000000       0.00000000      -0.00616144
