2
Properties=species:S:1:pos:R:3:forces:R:3 energy=191.43154537527778 pbc="F F F"
He       0.00000000       0.00000000       0.00000000       0.00000000       0.00000000   -3300.62158203
He       0.00000000       0.00000000       0.10000000       0.00000000       0.00000000    3300.62158203
2
Properties=species:S:1:pos:R:3:forces:R:3 energy=79.07143032400826 pbc="F F F"
He       0.00000000       0.00000000       0.00000000       0.00000000       0.00000000   -1042.22155762
He       0.00000000       0.00000000       0.15959596       0.00000000       0.00000000    1042.22155762
2
Properties=species:S:1:pos:R:3:forces:R:3 energy=37.62609112132539 pbc="F F F"
He       0.00000000       0.00000000       0.00000000       0.00000000       0.00000000    -453.94433594
He       0.00000000       0.00000000       0.21919192       0.00000000       0.00000000     453.94433594
2
Properties=species:S:1:pos:R:3:forces:R:3 energy=18.180465816743574 pbc="F F F"
He       0.00000000       0.00000000       0.00000000       0.00000000       0.00000000    -228.89964294
He       0.00000000       0.00000000       0.27878788       0.00000000       0.00000000     228.89964294
2
Properties=species:S:1:pos:R:3:forces:R:3 energy=8.134613157788639 pbc="F F F"
He       0.00000000       0.00000000       0.00000000       0.00000000       0.00000000    -119.54786682
He       0.00000000       0.00000000       0.33838384       0.00000000       0.00000000     119.54786682
2
Properties=species:S:1:pos:R:3:forces:R:3 energy=3.009194738231033 pbc="F F F"
He       0.00000000       0.00000000       0.00000000       0.00000000       0.00000000     -57.87630844
He       0.00000000       0.00000000       0.39797980       0.00000000       0.00000000      57.87630844
2
Properties=species:S:1:pos:R:3:forces:R:3 energy=0.7355345059689293 pbc="F F F"
He       0.00000000       0.00000000       0.00000000       0.00000000       0.00000000     -21.82285881
He       0.00000000       0.00000000       0.45757576       0.00000000       0.00000000      21.82285881
2
Properties=species:S:1:pos:R:3:forces:R:3 energy=0.05495977014711502 pbc="F F F"
He       0.00000000       0.00000000       0.00000000       0.00000000       0.00000000      -3.68539047
He       0.00000000       0.00000000       0.51717172       0.00000000       0.00000000       3.68539047
2
Properties=species:S:1:pos:R:3:forces:R:3 energy=0.0019251422180689213 pbc="F F F"
He       0.00000000       0.00000000       0.00000000       0.00000000       0.00000000      -0.01287428
He       0.00000000       0.00000000       0.57676768       0.00000000       0.00000000       0.01287428
2
Properties=species:S:1:pos:R:3:forces:R:3 energy=0.001375886931762307 pbc="F F F"
He       0.00000000       0.00000000       0.00000000       0.00000000       0.00000000      -0.00656630
He       0.00000000       0.00000000       0.63636364       0.00000000       0.00000000       0.00656630
2
Properties=species:S:1:pos:R:3:forces:R:3 energy=0.001051019562367196 pbc="F F F"
He       0.00000000       0.00000000       0.00000000       0.00000000       0.00000000      -0.00477598
He       0.00000000       0.00000000       0.69595960       0.00000000       0.00000000       0.00477598
2
Properties=species:S:1:pos:R:3:forces:R:3 energy=0.0007853732533788329 pbc="F F F"
He       0.00000000       0.00000000       0.00000000       0.00000000       0.00000000      -0.00414737
He       0.00000000       0.00000000       0.75555556       0.00000000       0.00000000       0.00414737
2
Properties=species:S:1:pos:R:3:forces:R:3 energy=0.0005629948533555373 pbc="F F F"
He       0.00000000       0.00000000       0.00000000       0.00000000       0.00000000      -0.00324072
He       0.00000000       0.00000000       0.81515152       0.00000000       0.00000000       0.00324072
2
Properties=species:S:1:pos:R:3:forces:R:3 energy=0.00040689111972014606 pbc="F F F"
He       0.00000000       0.00000000       0.00000000       0.00000000       0.00000000      -0.00195948
He       0.00000000       0.00000000       0.87474747       0.00000000       0.00000000       0.00195948
2
Properties=species:S:1:pos:R:3:forces:R:3 energy=0.0003282525994217022 pbc="F F F"
He       0.00000000       0.00000000       0.00000000       0.00000000       0.00000000      -0.00073991
He       0.00000000       0.00000000       0.93434343       0.00000000       0.00000000       0.00073991
2
Properties=species:S:1:pos:R:3:forces:R:3 energy=0.00030789057153089976 pbc="F F F"
He       0.00000000       0.00000000       0.00000000       0.00000000       0.00000000      -0.00004447
He       0.00000000       0.00000000       0.99393939       0.00000000       0.00000000       0.00004447
2
Properties=species:S:1:pos:R:3:forces:R:3 energy=0.0003123636254224072 pbc="F F F"
He       0.00000000       0.00000000       0.00000000       0.00000000       0.00000000       0.00012461
He       0.00000000       0.00000000       1.05353535       0.00000000       0.00000000      -0.00012461
2
Properties=species:S:1:pos:R:3:forces:R:3 energy=0.00031675373171123145 pbc="F F F"
He       0.00000000       0.00000000       0.00000000       0.00000000       0.00000000      -0.00001018
He       0.00000000       0.00000000       1.11313131       0.00000000       0.00000000       0.00001018
2
Properties=species:S:1:pos:R:3:forces:R:3 energy=0.0003087918555320212 pbc="F F F"
He       0.00000000       0.00000000       0.00000000       0.00000000       0.00000000      -0.00026616
He       0.00000000       0.00000000       1.17272727       0.00000000       0.00000000       0.00026616
2
Properties=species:S:1:pos:R:3:forces:R:3 energy=0.0002848378686323499 pbc="F F F"
He       0.00000000       0.00000000       0.00000000       0.00000000       0.00000000      -0.00053348
He       0.00000000       0.00000000       1.23232323       0.00000000       0.00000000       0.00053348
2
Properties=species:S:1:pos:R:3:forces:R:3 energy=0.00024615171435195976 pbc="F F F"
He       0.00000000       0.00000000       0.00000000       0.00000000       0.00000000      -0.00075443
He       0.00000000       0.00000000       1.29191919       0.00000000       0.00000000       0.00075443
2
Properties=species:S:1:pos:R:3:forces:R:3 energy=0.00019627671195150708 pbc="F F F"
He       0.00000000       0.00000000       0.00000000       0.00000000       0.00000000      -0.00090765
He       0.00000000       0.00000000       1.35151515       0.00000000       0.00000000       0.00090765
2
Properties=species:S:1:pos:R:3:forces:R:3 energy=0.0001393039031585639 pbc="F F F"
He       0.00000000       0.00000000       0.00000000       0.00000000       0.00000000      -0.00099392
He       0.00000000       0.00000000       1.41111111       0.00000000       0.00000000       0.00099392
2
Properties=species:S:1:pos:R:3:forces:R:3 energy=7.892575321745378e-05 pbc="F F F"
He       0.00000000       0.00000000       0.00000000       0.00000000       0.00000000      -0.00102404
He       0.00000000       0.00000000       1.47070707       0.00000000       0.00000000       0.00102404
2
Properties=species:S:1:pos:R:3:forces:R:3 energy=1.8103336905028397e-05 pbc="F F F"
He       0.00000000       0.00000000       0.00000000       0.00000000       0.00000000      -0.00101090
He       0.00000000       0.00000000       1.53030303       0.00000000       0.00000000       0.00101090
2
Properties=species:S:1:pos:R:3:forces:R:3 energy=-4.093232863815275e-05 pbc="F F F"
He       0.00000000       0.00000000       0.00000000       0.00000000       0.00000000      -0.00096582
He       0.00000000       0.00000000       1.58989899       0.00000000       0.00000000       0.00096582
2
Properties=species:S:1:pos:R:3:forces:R:3 energy=-9.655474228746218e-05 pbc="F F F"
He       0.00000000       0.00000000       0.00000000       0.00000000       0.00000000      -0.00089744
He       0.00000000       0.00000000       1.64949495       0.00000000       0.00000000       0.00089744
2
Properties=species:S:1:pos:R:3:forces:R:3 energy=-0.00014756405374333182 pbc="F F F"
He       0.00000000       0.00000000       0.00000000       0.00000000       0.00000000      -0.00081197
He       0.00000000       0.00000000       1.70909091       0.00000000       0.00000000       0.00081197
2
Properties=species:S:1:pos:R:3:forces:R:3 energy=-0.00019308112171429826 pbc="F F F"
He       0.00000000       0.00000000       0.00000000       0.00000000       0.00000000      -0.00071372
He       0.00000000       0.00000000       1.76868687       0.00000000       0.00000000       0.00071372
2
Properties=species:S:1:pos:R:3:forces:R:3 energy=-0.0002324388350974252 pbc="F F F"
He       0.00000000       0.00000000       0.00000000       0.00000000       0.00000000      -0.00060573
He       0.00000000       0.00000000       1.82828283       0.00000000       0.00000000       0.00060573
2
Properties=species:S:1:pos:R:3:forces:R:3 energy=-0.000265127068437075 pbc="F F F"
He       0.00000000       0.00000000       0.00000000       0.00000000       0.00000000      -0.00049020
He       0.00000000       0.00000000       1.88787879       0.00000000       0.00000000       0.00049020
2
Properties=species:S:1:pos:R:3:forces:R:3 energy=-0.00029075249734390415 pbc="F F F"
He       0.00000000       0.00000000       0.00000000       0.00000000       0.00000000      -0.00036888
He       0.00000000       0.00000000       1.94747475       0.00000000       0.00000000       0.00036888
2
Properties=species:S:1:pos:R:3:forces:R:3 energy=-0.00030900981791293536 pbc="F F F"
He       0.00000000       0.00000000       0.00000000       0.00000000       0.00000000      -0.00024322
He       0.00000000       0.00000000       2.00707071       0.00000000       0.00000000       0.00024322
2
Properties=species:S:1:pos:R:3:forces:R:3 energy=-0.000319682320223608 pbc="F F F"
He       0.00000000       0.00000000       0.00000000       0.00000000       0.00000000      -0.00011460
He       0.00000000       0.00000000       2.06666667       0.00000000       0.00000000       0.00011460
2
Properties=species:S:1:pos:R:3:forces:R:3 energy=-0.00032263772448176556 pbc="F F F"
He       0.00000000       0.00000000       0.00000000       0.00000000       0.00000000       0.00001562
He       0.00000000       0.00000000       2.12626263       0.00000000       0.00000000      -0.00001562
2
Properties=species:S:1:pos:R:3:forces:R:3 energy=-0.00031781814413291186 pbc="F F F"
He       0.00000000       0.00000000       0.00000000       0.00000000       0.00000000       0.00014603
He       0.00000000       0.00000000       2.18585859       0.00000000       0.00000000      -0.00014603
2
Properties=species:S:1:pos:R:3:forces:R:3 energy=-0.00030525836638122406 pbc="F F F"
He       0.00000000       0.00000000       0.00000000       0.00000000       0.00000000       0.00027511
He       0.00000000       0.00000000       2.24545455       0.00000000       0.00000000      -0.00027511
2
Properties=species:S:1:pos:R:3:forces:R:3 energy=-0.00028508523388220486 pbc="F F F"
He       0.00000000       0.00000000       0.00000000       0.00000000       0.00000000       0.00040128
He       0.00000000       0.00000000       2.30505051       0.00000000       0.00000000      -0.00040128
2
Properties=species:S:1:pos:R:3:forces:R:3 energy=-0.00025751877653925584 pbc="F F F"
He       0.00000000       0.00000000       0.00000000       0.00000000       0.00000000       0.00052284
He       0.00000000       0.00000000       2.36464646       0.00000000       0.00000000      -0.00052284
2
Properties=species:S:1:pos:R:3:forces:R:3 energy=-0.0002228933318938447 pbc="F F F"
He       0.00000000       0.00000000       0.00000000       0.00000000       0.00000000       0.00063808
He       0.00000000       0.00000000       2.42424242       0.00000000       0.00000000      -0.00063808
2
Properties=species:S:1:pos:R:3:forces:R:3 energy=-0.00018162822118282062 pbc="F F F"
He       0.00000000       0.00000000       0.00000000       0.00000000       0.00000000       0.00074526
He       0.00000000       0.00000000       2.48383838       0.00000000       0.00000000      -0.00074526
2
Properties=species:S:1:pos:R:3:forces:R:3 energy=-0.00013425554328940718 pbc="F F F"
He       0.00000000       0.00000000       0.00000000       0.00000000       0.00000000       0.00084271
He       0.00000000       0.00000000       2.54343434       0.00000000       0.00000000      -0.00084271
2
Properties=species:S:1:pos:R:3:forces:R:3 energy=-8.140593004460112e-05 pbc="F F F"
He       0.00000000       0.00000000       0.00000000       0.00000000       0.00000000       0.00092894
He       0.00000000       0.00000000       2.60303030       0.00000000       0.00000000      -0.00092894
2
Properties=species:S:1:pos:R:3:forces:R:3 energy=-2.3785578955992865e-05 pbc="F F F"
He       0.00000000       0.00000000       0.00000000       0.00000000       0.00000000       0.00100265
He       0.00000000       0.00000000       2.66262626       0.00000000       0.00000000      -0.00100265
2
Properties=species:S:1:pos:R:3:forces:R:3 energy=3.783488643239194e-05 pbc="F F F"
He       0.00000000       0.00000000       0.00000000       0.00000000       0.00000000       0.00106292
He       0.00000000       0.00000000       2.72222222       0.00000000       0.00000000      -0.00106292
2
Properties=species:S:1:pos:R:3:forces:R:3 energy=0.00010262673807699284 pbc="F F F"
He       0.00000000       0.00000000       0.00000000       0.00000000       0.00000000       0.00110919
He       0.00000000       0.00000000       2.78181818       0.00000000       0.00000000      -0.00110919
2
Properties=species:S:1:pos:R:3:forces:R:3 energy=0.00016976057931384942 pbc="F F F"
He       0.00000000       0.00000000       0.00000000       0.00000000       0.00000000       0.00114142
He       0.00000000       0.00000000       2.84141414       0.00000000       0.00000000      -0.00114142
2
Properties=species:S:1:pos:R:3:forces:R:3 energy=0.00023840787041559273 pbc="F F F"
He       0.00000000       0.00000000       0.00000000       0.00000000       0.00000000       0.00116006
He       0.00000000       0.00000000       2.90101010       0.00000000       0.00000000      -0.00116006
2
Properties=species:S:1:pos:R:3:forces:R:3 energy=0.00030778040166925787 pbc="F F F"
He       0.00000000       0.00000000       0.00000000       0.00000000       0.00000000       0.00116611
He       0.00000000       0.00000000       2.96060606       0.00000000       0.00000000      -0.00116611
2
Properties=species:S:1:pos:R:3:forces:R:3 energy=0.0003771762970540966 pbc="F F F"
He       0.00000000       0.00000000       0.00000000       0.00000000       0.00000000       0.00116105
He       0.00000000       0.00000000       3.02020202       0.00000000       0.00000000      -0.00116105
2
Properties=species:S:1:pos:R:3:forces:R:3 energy=0.00044598723779013026 pbc="F F F"
He       0.00000000       0.00000000       0.00000000       0.00000000       0.00000000       0.00114677
He       0.00000000       0.00000000       3.07979798       0.00000000       0.00000000      -0.00114677
2
Properties=species:S:1:pos:R:3:forces:R:3 energy=0.0005137240560077678 pbc="F F F"
He       0.00000000       0.00000000       0.00000000       0.00000000       0.00000000       0.00112546
He       0.00000000       0.00000000       3.13939394       0.00000000       0.00000000      -0.00112546
2
Properties=species:S:1:pos:R:3:forces:R:3 energy=0.0005800369495325335 pbc="F F F"
He       0.00000000       0.00000000       0.00000000       0.00000000       0.00000000       0.00109942
He       0.00000000       0.00000000       3.19898990       0.00000000       0.00000000      -0.00109942
2
Properties=species:S:1:pos:R:3:forces:R:3 energy=0.0006447185874915785 pbc="F F F"
He       0.00000000       0.00000000       0.00000000       0.00000000       0.00000000       0.00107097
He       0.00000000       0.00000000       3.25858586       0.00000000       0.00000000      -0.00107097
2
Properties=species:S:1:pos:R:3:forces:R:3 energy=0.0007076810437677544 pbc="F F F"
He       0.00000000       0.00000000       0.00000000       0.00000000       0.00000000       0.00104219
He       0.00000000       0.00000000       3.31818182       0.00000000       0.00000000      -0.00104219
2
Properties=species:S:1:pos:R:3:forces:R:3 energy=0.000768966177321183 pbc="F F F"
He       0.00000000       0.00000000       0.00000000       0.00000000       0.00000000       0.00101485
He       0.00000000       0.00000000       3.37777778       0.00000000       0.00000000      -0.00101485
2
Properties=species:S:1:pos:R:3:forces:R:3 energy=0.0008286968536213422 pbc="F F F"
He       0.00000000       0.00000000       0.00000000       0.00000000       0.00000000       0.00099024
He       0.00000000       0.00000000       3.43737374       0.00000000       0.00000000      -0.00099024
2
Properties=species:S:1:pos:R:3:forces:R:3 energy=0.0008870661072407685 pbc="F F F"
He       0.00000000       0.00000000       0.00000000       0.00000000       0.00000000       0.00096913
He       0.00000000       0.00000000       3.49696970       0.00000000       0.00000000      -0.00096913
2
Properties=species:S:1:pos:R:3:forces:R:3 energy=0.0009442841210414417 pbc="F F F"
He       0.00000000       0.00000000       0.00000000       0.00000000       0.00000000       0.00095169
He       0.00000000       0.00000000       3.55656566       0.00000000       0.00000000      -0.00095169
2
Properties=species:S:1:pos:R:3:forces:R:3 energy=0.001000563300545285 pbc="F F F"
He       0.00000000       0.00000000       0.00000000       0.00000000       0.00000000       0.00093749
He       0.00000000       0.00000000       3.61616162       0.00000000       0.00000000      -0.00093749
2
Properties=species:S:1:pos:R:3:forces:R:3 energy=0.001056071784128464 pbc="F F F"
He       0.00000000       0.00000000       0.00000000       0.00000000       0.00000000       0.00092565
He       0.00000000       0.00000000       3.67575758       0.00000000       0.00000000      -0.00092565
2
Properties=species:S:1:pos:R:3:forces:R:3 energy=0.0011109163504356794 pbc="F F F"
He       0.00000000       0.00000000       0.00000000       0.00000000       0.00000000       0.00091499
He       0.00000000       0.00000000       3.73535354       0.00000000       0.00000000      -0.00091499
2
Properties=species:S:1:pos:R:3:forces:R:3 energy=0.0011651296880492734 pbc="F F F"
He       0.00000000       0.00000000       0.00000000       0.00000000       0.00000000       0.00090425
He       0.00000000       0.00000000       3.79494949       0.00000000       0.00000000      -0.00090425
2
Properties=species:S:1:pos:R:3:forces:R:3 energy=0.0012186783128397894 pbc="F F F"
He       0.00000000       0.00000000       0.00000000       0.00000000       0.00000000       0.00089252
He       0.00000000       0.00000000       3.85454545       0.00000000       0.00000000      -0.00089252
2
Properties=species:S:1:pos:R:3:forces:R:3 energy=0.0012714863562358477 pbc="F F F"
He       0.00000000       0.00000000       0.00000000       0.00000000       0.00000000       0.00087956
He       0.00000000       0.00000000       3.91414141       0.00000000       0.00000000      -0.00087956
2
Properties=species:S:1:pos:R:3:forces:R:3 energy=0.0013235008541735453 pbc="F F F"
He       0.00000000       0.00000000       0.00000000       0.00000000       0.00000000       0.00086604
He       0.00000000       0.00000000       3.97373737       0.00000000       0.00000000      -0.00086604
2
Properties=species:S:1:pos:R:3:forces:R:3 energy=0.0013747344583168897 pbc="F F F"
He       0.00000000       0.00000000       0.00000000       0.00000000       0.00000000       0.00085376
He       0.00000000       0.00000000       4.03333333       0.00000000       0.00000000      -0.00085376
2
Properties=species:S:1:pos:R:3:forces:R:3 energy=0.001425338649889446 pbc="F F F"
He       0.00000000       0.00000000       0.00000000       0.00000000       0.00000000       0.00084535
He       0.00000000       0.00000000       4.09292929       0.00000000       0.00000000      -0.00084535
2
Properties=species:S:1:pos:R:3:forces:R:3 energy=0.00147563055100864 pbc="F F F"
He       0.00000000       0.00000000       0.00000000       0.00000000       0.00000000       0.00084375
He       0.00000000       0.00000000       4.15252525       0.00000000       0.00000000      -0.00084375
2
Properties=species:S:1:pos:R:3:forces:R:3 energy=0.0015260882460896923 pbc="F F F"
He       0.00000000       0.00000000       0.00000000       0.00000000       0.00000000       0.00085124
He       0.00000000       0.00000000       4.21212121       0.00000000       0.00000000      -0.00085124
2
Properties=species:S:1:pos:R:3:forces:R:3 energy=0.001577279109895707 pbc="F F F"
He       0.00000000       0.00000000       0.00000000       0.00000000       0.00000000       0.00086812
He       0.00000000       0.00000000       4.27171717       0.00000000       0.00000000      -0.00086812
2
Properties=species:S:1:pos:R:3:forces:R:3 energy=0.001629695902576531 pbc="F F F"
He       0.00000000       0.00000000       0.00000000       0.00000000       0.00000000       0.00089167
He       0.00000000       0.00000000       4.33131313       0.00000000       0.00000000      -0.00089167
2
Properties=species:S:1:pos:R:3:forces:R:3 energy=0.0016835699056563444 pbc="F F F"
He       0.00000000       0.00000000       0.00000000       0.00000000       0.00000000       0.00091565
He       0.00000000       0.00000000       4.39090909       0.00000000       0.00000000      -0.00091565
2
Properties=species:S:1:pos:R:3:forces:R:3 energy=0.001738663705041962 pbc="F F F"
He       0.00000000       0.00000000       0.00000000       0.00000000       0.00000000       0.00093096
He       0.00000000       0.00000000       4.45050505       0.00000000       0.00000000      -0.00093096
2
Properties=species:S:1:pos:R:3:forces:R:3 energy=0.001794160730303301 pbc="F F F"
He       0.00000000       0.00000000       0.00000000       0.00000000       0.00000000       0.00092761
He       0.00000000       0.00000000       4.51010101       0.00000000       0.00000000      -0.00092761
2
Properties=species:S:1:pos:R:3:forces:R:3 energy=0.0018486862483511205 pbc="F F F"
He       0.00000000       0.00000000       0.00000000       0.00000000       0.00000000       0.00089714
He       0.00000000       0.00000000       4.56969697       0.00000000       0.00000000      -0.00089714
2
Properties=species:S:1:pos:R:3:forces:R:3 energy=0.0019004594642031145 pbc="F F F"
He       0.00000000       0.00000000       0.00000000       0.00000000       0.00000000       0.00083490
He       0.00000000       0.00000000       4.62929293       0.00000000       0.00000000      -0.00083490
2
Properties=species:S:1:pos:R:3:forces:R:3 energy=0.0019475682826423548 pbc="F F F"
He       0.00000000       0.00000000       0.00000000       0.00000000       0.00000000       0.00074109
He       0.00000000       0.00000000       4.68888889       0.00000000       0.00000000      -0.00074109
2
Properties=species:S:1:pos:R:3:forces:R:3 energy=0.001988256773629219 pbc="F F F"
He       0.00000000       0.00000000       0.00000000       0.00000000       0.00000000       0.00062051
He       0.00000000       0.00000000       4.74848485       0.00000000       0.00000000      -0.00062051
2
Properties=species:S:1:pos:R:3:forces:R:3 energy=0.002021158219011126 pbc="F F F"
He       0.00000000       0.00000000       0.00000000       0.00000000       0.00000000       0.00048136
He       0.00000000       0.00000000       4.80808081       0.00000000       0.00000000      -0.00048136
2
Properties=species:S:1:pos:R:3:forces:R:3 energy=0.0020454570006439706 pbc="F F F"
He       0.00000000       0.00000000       0.00000000       0.00000000       0.00000000       0.00033346
He       0.00000000       0.00000000       4.86767677       0.00000000       0.00000000      -0.00033346
2
Properties=species:S:1:pos:R:3:forces:R:3 energy=0.0020609291073932848 pbc="F F F"
He       0.00000000       0.00000000       0.00000000       0.00000000       0.00000000       0.00018676
He       0.00000000       0.00000000       4.92727273       0.00000000       0.00000000      -0.00018676
2
Properties=species:S:1:pos:R:3:forces:R:3 energy=0.0020679188357895697 pbc="F F F"
He       0.00000000       0.00000000       0.00000000       0.00000000       0.00000000       0.00005014
He       0.00000000       0.00000000       4.98686869       0.00000000       0.00000000      -0.00005014
2
Properties=species:S:1:pos:R:3:forces:R:3 energy=0.0020672500219626943 pbc="F F F"
He       0.00000000       0.00000000       0.00000000       0.00000000       0.00000000      -0.00006925
He       0.00000000       0.00000000       5.04646465       0.00000000       0.00000000       0.00006925
2
Properties=species:S:1:pos:R:3:forces:R:3 energy=0.0020601077867986894 pbc="F F F"
He       0.00000000       0.00000000       0.00000000       0.00000000       0.00000000      -0.00016643
He       0.00000000       0.00000000       5.10606061       0.00000000       0.00000000       0.00016643
2
Properties=species:S:1:pos:R:3:forces:R:3 energy=0.002047909492078791 pbc="F F F"
He       0.00000000       0.00000000       0.00000000       0.00000000       0.00000000      -0.00023856
He       0.00000000       0.00000000       5.16565657       0.00000000       0.00000000       0.00023856
2
Properties=species:S:1:pos:R:3:forces:R:3 energy=0.002032185455319215 pbc="F F F"
He       0.00000000       0.00000000       0.00000000       0.00000000       0.00000000      -0.00028493
He       0.00000000       0.00000000       5.22525253       0.00000000       0.00000000       0.00028493
2
Properties=species:S:1:pos:R:3:forces:R:3 energy=0.002014438337811433 pbc="F F F"
He       0.00000000       0.00000000       0.00000000       0.00000000       0.00000000      -0.00030678
He       0.00000000       0.00000000       5.28484848       0.00000000       0.00000000       0.00030678
2
Properties=species:S:1:pos:R:3:forces:R:3 energy=0.001996050279224688 pbc="F F F"
He       0.00000000       0.00000000       0.00000000       0.00000000       0.00000000      -0.00030697
He       0.00000000       0.00000000       5.34444444       0.00000000       0.00000000       0.00030697
2
Properties=species:S:1:pos:R:3:forces:R:3 energy=0.001978200769447897 pbc="F F F"
He       0.00000000       0.00000000       0.00000000       0.00000000       0.00000000      -0.00028946
He       0.00000000       0.00000000       5.40404040       0.00000000       0.00000000       0.00028946
2
Properties=species:S:1:pos:R:3:forces:R:3 energy=0.0019618050629314023 pbc="F F F"
He       0.00000000       0.00000000       0.00000000       0.00000000       0.00000000      -0.00025884
He       0.00000000       0.00000000       5.46363636       0.00000000       0.00000000       0.00025884
2
Properties=species:S:1:pos:R:3:forces:R:3 energy=0.0019475229419124503 pbc="F F F"
He       0.00000000       0.00000000       0.00000000       0.00000000       0.00000000      -0.00021973
He       0.00000000       0.00000000       5.52323232       0.00000000       0.00000000       0.00021973
2
Properties=species:S:1:pos:R:3:forces:R:3 energy=0.0019357052458001374 pbc="F F F"
He       0.00000000       0.00000000       0.00000000       0.00000000       0.00000000      -0.00017640
He       0.00000000       0.00000000       5.58282828       0.00000000       0.00000000       0.00017640
2
Properties=species:S:1:pos:R:3:forces:R:3 energy=0.0019265105525447987 pbc="F F F"
He       0.00000000       0.00000000       0.00000000       0.00000000       0.00000000      -0.00013238
He       0.00000000       0.00000000       5.64242424       0.00000000       0.00000000       0.00013238
2
Properties=species:S:1:pos:R:3:forces:R:3 energy=0.0019198772965981414 pbc="F F F"
He       0.00000000       0.00000000       0.00000000       0.00000000       0.00000000      -0.00009056
He       0.00000000       0.00000000       5.70202020       0.00000000       0.00000000       0.00009056
2
Properties=species:S:1:pos:R:3:forces:R:3 energy=0.0019156297574939069 pbc="F F F"
He       0.00000000       0.00000000       0.00000000       0.00000000       0.00000000      -0.00005313
He       0.00000000       0.00000000       5.76161616       0.00000000       0.00000000       0.00005313
2
Properties=species:S:1:pos:R:3:forces:R:3 energy=0.0019134259332196683 pbc="F F F"
He       0.00000000       0.00000000       0.00000000       0.00000000       0.00000000      -0.00002185
He       0.00000000       0.00000000       5.82121212       0.00000000       0.00000000       0.00002185
2
Properties=species:S:1:pos:R:3:forces:R:3 energy=0.0019128760339997826 pbc="F F F"
He       0.00000000       0.00000000       0.00000000       0.00000000       0.00000000       0.00000175
He       0.00000000       0.00000000       5.88080808       0.00000000       0.00000000      -0.00000175
2
Properties=species:S:1:pos:R:3:forces:R:3 energy=0.0019134545090287926 pbc="F F F"
He       0.00000000       0.00000000       0.00000000       0.00000000       0.00000000       0.00001635
He       0.00000000       0.00000000       5.94040404       0.00000000       0.00000000      -0.00001635
2
Properties=species:S:1:pos:R:3:forces:R:3 energy=0.0019146129817079068 pbc="F F F"
He       0.00000000       0.00000000       0.00000000       0.00000000       0.00000000       0.00002058
He       0.00000000       0.00000000       6.00000000       0.00000000       0.00000000      -0.00002058
