2
Properties=species:S:1:pos:R:3:forces:R:3 energy=43039.70707734473 pbc="F F F"
In       0.00000000       0.00000000       0.00000000       0.00000000       0.00000000 -1036237.43750000
In       0.00000000       0.00000000       0.10000000       0.00000000       0.00000000 1036237.43750000
2
Properties=species:S:1:pos:R:3:forces:R:3 energy=12577.306686719729 pbc="F F F"
In       0.00000000       0.00000000       0.00000000       0.00000000       0.00000000 -226025.53125000
In       0.00000000       0.00000000       0.15959596       0.00000000       0.00000000  226025.53125000
2
Properties=species:S:1:pos:R:3:forces:R:3 energy=4775.228561719728 pbc="F F F"
In       0.00000000       0.00000000       0.00000000       0.00000000       0.00000000  -70831.48437500
In       0.00000000       0.00000000       0.21919192       0.00000000       0.00000000   70831.48437500
2
Properties=species:S:1:pos:R:3:forces:R:3 energy=2094.443893750978 pbc="F F F"
In       0.00000000       0.00000000       0.00000000       0.00000000       0.00000000  -27146.07226562
In       0.00000000       0.00000000       0.27878788       0.00000000       0.00000000   27146.07226562
2
Properties=species:S:1:pos:R:3:forces:R:3 energy=1007.7079318369155 pbc="F F F"
In       0.00000000       0.00000000       0.00000000       0.00000000       0.00000000  -11739.80761719
In       0.00000000       0.00000000       0.33838384       0.00000000       0.00000000   11739.80761719
2
Properties=species:S:1:pos:R:3:forces:R:3 energy=520.0859225659074 pbc="F F F"
In       0.00000000       0.00000000       0.00000000       0.00000000       0.00000000   -5496.63916016
In       0.00000000       0.00000000       0.39797980       0.00000000       0.00000000    5496.63916016
2
Properties=species:S:1:pos:R:3:forces:R:3 energy=285.58876070700865 pbc="F F F"
In       0.00000000       0.00000000       0.00000000       0.00000000       0.00000000   -2726.90771484
In       0.00000000       0.00000000       0.45757576       0.00000000       0.00000000    2726.90771484
2
Properties=species:S:1:pos:R:3:forces:R:3 energy=166.81239353217993 pbc="F F F"
In       0.00000000       0.00000000       0.00000000       0.00000000       0.00000000   -1414.51196289
In       0.00000000       0.00000000       0.51717172       0.00000000       0.00000000    1414.51196289
2
Properties=species:S:1:pos:R:3:forces:R:3 energy=104.24562109341718 pbc="F F F"
In       0.00000000       0.00000000       0.00000000       0.00000000       0.00000000    -757.34655762
In       0.00000000       0.00000000       0.57676768       0.00000000       0.00000000     757.34655762
2
Properties=species:S:1:pos:R:3:forces:R:3 energy=70.4904331431498 pbc="F F F"
In       0.00000000       0.00000000       0.00000000       0.00000000       0.00000000    -410.62530518
In       0.00000000       0.00000000       0.63636364       0.00000000       0.00000000     410.62530518
2
Properties=species:S:1:pos:R:3:forces:R:3 energy=52.27301834738139 pbc="F F F"
In       0.00000000       0.00000000       0.00000000       0.00000000       0.00000000    -219.00773621
In       0.00000000       0.00000000       0.69595960       0.00000000       0.00000000     219.00773621
2
Properties=species:S:1:pos:R:3:forces:R:3 energy=42.74301585158974 pbc="F F F"
In       0.00000000       0.00000000       0.00000000       0.00000000       0.00000000    -111.29212189
In       0.00000000       0.00000000       0.75555556       0.00000000       0.00000000     111.29212189
2
Properties=species:S:1:pos:R:3:forces:R:3 energy=38.011299838135876 pbc="F F F"
In       0.00000000       0.00000000       0.00000000       0.00000000       0.00000000     -54.27831650
In       0.00000000       0.00000000       0.81515152       0.00000000       0.00000000      54.27831650
2
Properties=species:S:1:pos:R:3:forces:R:3 energy=35.59147353330813 pbc="F F F"
In       0.00000000       0.00000000       0.00000000       0.00000000       0.00000000     -31.75825500
In       0.00000000       0.00000000       0.87474747       0.00000000       0.00000000      31.75825500
2
Properties=species:S:1:pos:R:3:forces:R:3 energy=33.76862073636887 pbc="F F F"
In       0.00000000       0.00000000       0.00000000       0.00000000       0.00000000     -32.03767395
In       0.00000000       0.00000000       0.93434343       0.00000000       0.00000000      32.03767395
2
Properties=species:S:1:pos:R:3:forces:R:3 energy=31.60925452784844 pbc="F F F"
In       0.00000000       0.00000000       0.00000000       0.00000000       0.00000000     -40.89678574
In       0.00000000       0.00000000       0.99393939       0.00000000       0.00000000      40.89678574
2
Properties=species:S:1:pos:R:3:forces:R:3 energy=28.874342200399393 pbc="F F F"
In       0.00000000       0.00000000       0.00000000       0.00000000       0.00000000     -50.93405914
In       0.00000000       0.00000000       1.05353535       0.00000000       0.00000000      50.93405914
2
Properties=species:S:1:pos:R:3:forces:R:3 energy=25.54956914054634 pbc="F F F"
In       0.00000000       0.00000000       0.00000000       0.00000000       0.00000000     -60.32640457
In       0.00000000       0.00000000       1.11313131       0.00000000       0.00000000      60.32640457
2
Properties=species:S:1:pos:R:3:forces:R:3 energy=21.753061314501775 pbc="F F F"
In       0.00000000       0.00000000       0.00000000       0.00000000       0.00000000     -66.26546478
In       0.00000000       0.00000000       1.17272727       0.00000000       0.00000000      66.26546478
2
Properties=species:S:1:pos:R:3:forces:R:3 energy=17.766650507948214 pbc="F F F"
In       0.00000000       0.00000000       0.00000000       0.00000000       0.00000000     -66.47021484
In       0.00000000       0.00000000       1.23232323       0.00000000       0.00000000      66.47021484
2
Properties=species:S:1:pos:R:3:forces:R:3 energy=13.950303081325202 pbc="F F F"
In       0.00000000       0.00000000       0.00000000       0.00000000       0.00000000     -60.70190048
In       0.00000000       0.00000000       1.29191919       0.00000000       0.00000000      60.70190048
2
Properties=species:S:1:pos:R:3:forces:R:3 energy=10.6164065707555 pbc="F F F"
In       0.00000000       0.00000000       0.00000000       0.00000000       0.00000000     -50.70906067
In       0.00000000       0.00000000       1.35151515       0.00000000       0.00000000      50.70906067
2
Properties=species:S:1:pos:R:3:forces:R:3 energy=7.9267657473296715 pbc="F F F"
In       0.00000000       0.00000000       0.00000000       0.00000000       0.00000000     -39.69184494
In       0.00000000       0.00000000       1.41111111       0.00000000       0.00000000      39.69184494
2
Properties=species:S:1:pos:R:3:forces:R:3 energy=5.8406440403234 pbc="F F F"
In       0.00000000       0.00000000       0.00000000       0.00000000       0.00000000     -30.82343292
In       0.00000000       0.00000000       1.47070707       0.00000000       0.00000000      30.82343292
2
Properties=species:S:1:pos:R:3:forces:R:3 energy=4.198008824105725 pbc="F F F"
In       0.00000000       0.00000000       0.00000000       0.00000000       0.00000000     -24.63620949
In       0.00000000       0.00000000       1.53030303       0.00000000       0.00000000      24.63620949
2
Properties=species:S:1:pos:R:3:forces:R:3 energy=2.881266475969851 pbc="F F F"
In       0.00000000       0.00000000       0.00000000       0.00000000       0.00000000     -19.64681053
In       0.00000000       0.00000000       1.58989899       0.00000000       0.00000000      19.64681053
2
Properties=species:S:1:pos:R:3:forces:R:3 energy=1.847571782753751 pbc="F F F"
In       0.00000000       0.00000000       0.00000000       0.00000000       0.00000000     -15.13147449
In       0.00000000       0.00000000       1.64949495       0.00000000       0.00000000      15.13147449
2
Properties=species:S:1:pos:R:3:forces:R:3 energy=1.0630740262473337 pbc="F F F"
In       0.00000000       0.00000000       0.00000000       0.00000000       0.00000000     -11.34868622
In       0.00000000       0.00000000       1.70909091       0.00000000       0.00000000      11.34868622
2
Properties=species:S:1:pos:R:3:forces:R:3 energy=0.475102930370416 pbc="F F F"
In       0.00000000       0.00000000       0.00000000       0.00000000       0.00000000      -8.54945564
In       0.00000000       0.00000000       1.76868687       0.00000000       0.00000000       8.54945564
2
Properties=species:S:1:pos:R:3:forces:R:3 energy=0.025964297590029967 pbc="F F F"
In       0.00000000       0.00000000       0.00000000       0.00000000       0.00000000      -6.65516376
In       0.00000000       0.00000000       1.82828283       0.00000000       0.00000000       6.65516376
2
Properties=species:S:1:pos:R:3:forces:R:3 energy=-0.3311681867263503 pbc="F F F"
In       0.00000000       0.00000000       0.00000000       0.00000000       0.00000000      -5.41768026
In       0.00000000       0.00000000       1.88787879       0.00000000       0.00000000       5.41768026
2
Properties=species:S:1:pos:R:3:forces:R:3 energy=-0.6280044024634314 pbc="F F F"
In       0.00000000       0.00000000       0.00000000       0.00000000       0.00000000      -4.59666395
In       0.00000000       0.00000000       1.94747475       0.00000000       0.00000000       4.59666395
2
Properties=species:S:1:pos:R:3:forces:R:3 energy=-0.8838038071487245 pbc="F F F"
In       0.00000000       0.00000000       0.00000000       0.00000000       0.00000000      -4.01663160
In       0.00000000       0.00000000       2.00707071       0.00000000       0.00000000       4.01663160
2
Properties=species:S:1:pos:R:3:forces:R:3 energy=-1.109210725331018 pbc="F F F"
In       0.00000000       0.00000000       0.00000000       0.00000000       0.00000000      -3.56187725
In       0.00000000       0.00000000       2.06666667       0.00000000       0.00000000       3.56187725
2
Properties=species:S:1:pos:R:3:forces:R:3 energy=-1.3094995869455868 pbc="F F F"
In       0.00000000       0.00000000       0.00000000       0.00000000       0.00000000      -3.16632128
In       0.00000000       0.00000000       2.12626263       0.00000000       0.00000000       3.16632128
2
Properties=species:S:1:pos:R:3:forces:R:3 energy=-1.4872184933883665 pbc="F F F"
In       0.00000000       0.00000000       0.00000000       0.00000000       0.00000000      -2.80207229
In       0.00000000       0.00000000       2.18585859       0.00000000       0.00000000       2.80207229
2
Properties=species:S:1:pos:R:3:forces:R:3 energy=-1.6439607766805266 pbc="F F F"
In       0.00000000       0.00000000       0.00000000       0.00000000       0.00000000      -2.46184254
In       0.00000000       0.00000000       2.24545455       0.00000000       0.00000000       2.46184254
2
Properties=species:S:1:pos:R:3:forces:R:3 energy=-1.78106004981517 pbc="F F F"
In       0.00000000       0.00000000       0.00000000       0.00000000       0.00000000      -2.14202046
In       0.00000000       0.00000000       2.30505051       0.00000000       0.00000000       2.14202046
2
Properties=species:S:1:pos:R:3:forces:R:3 energy=-1.8995300504156218 pbc="F F F"
In       0.00000000       0.00000000       0.00000000       0.00000000       0.00000000      -1.83516085
In       0.00000000       0.00000000       2.36464646       0.00000000       0.00000000       1.83516085
2
Properties=species:S:1:pos:R:3:forces:R:3 energy=-1.9998845946944712 pbc="F F F"
In       0.00000000       0.00000000       0.00000000       0.00000000       0.00000000      -1.53297615
In       0.00000000       0.00000000       2.42424242       0.00000000       0.00000000       1.53297615
2
Properties=species:S:1:pos:R:3:forces:R:3 energy=-2.082278915321468 pbc="F F F"
In       0.00000000       0.00000000       0.00000000       0.00000000       0.00000000      -1.23257923
In       0.00000000       0.00000000       2.48383838       0.00000000       0.00000000       1.23257923
2
Properties=species:S:1:pos:R:3:forces:R:3 energy=-2.146919433604946 pbc="F F F"
In       0.00000000       0.00000000       0.00000000       0.00000000       0.00000000      -0.93841416
In       0.00000000       0.00000000       2.54343434       0.00000000       0.00000000       0.93841416
2
Properties=species:S:1:pos:R:3:forces:R:3 energy=-2.194425552182013 pbc="F F F"
In       0.00000000       0.00000000       0.00000000       0.00000000       0.00000000      -0.65912867
In       0.00000000       0.00000000       2.60303030       0.00000000       0.00000000       0.65912867
2
Properties=species:S:1:pos:R:3:forces:R:3 energy=-2.225948097535291 pbc="F F F"
In       0.00000000       0.00000000       0.00000000       0.00000000       0.00000000      -0.40322334
In       0.00000000       0.00000000       2.66262626       0.00000000       0.00000000       0.40322334
2
Properties=species:S:1:pos:R:3:forces:R:3 energy=-2.243063659380688 pbc="F F F"
In       0.00000000       0.00000000       0.00000000       0.00000000       0.00000000      -0.17621873
In       0.00000000       0.00000000       2.72222222       0.00000000       0.00000000       0.17621873
2
Properties=species:S:1:pos:R:3:forces:R:3 energy=-2.2475590484325183 pbc="F F F"
In       0.00000000       0.00000000       0.00000000       0.00000000       0.00000000       0.02040004
In       0.00000000       0.00000000       2.78181818       0.00000000       0.00000000      -0.02040004
2
Properties=species:S:1:pos:R:3:forces:R:3 energy=-2.241194312335615 pbc="F F F"
In       0.00000000       0.00000000       0.00000000       0.00000000       0.00000000       0.18882062
In       0.00000000       0.00000000       2.84141414       0.00000000       0.00000000      -0.18882062
2
Properties=species:S:1:pos:R:3:forces:R:3 energy=-2.2255220192140315 pbc="F F F"
In       0.00000000       0.00000000       0.00000000       0.00000000       0.00000000       0.33361956
In       0.00000000       0.00000000       2.90101010       0.00000000       0.00000000      -0.33361956
2
Properties=species:S:1:pos:R:3:forces:R:3 energy=-2.201796538233739 pbc="F F F"
In       0.00000000       0.00000000       0.00000000       0.00000000       0.00000000       0.45990095
In       0.00000000       0.00000000       2.96060606       0.00000000       0.00000000      -0.45990095
2
Properties=species:S:1:pos:R:3:forces:R:3 energy=-2.1709934883959567 pbc="F F F"
In       0.00000000       0.00000000       0.00000000       0.00000000       0.00000000       0.57161415
In       0.00000000       0.00000000       3.02020202       0.00000000       0.00000000      -0.57161415
2
Properties=species:S:1:pos:R:3:forces:R:3 energy=-2.133915382830718 pbc="F F F"
In       0.00000000       0.00000000       0.00000000       0.00000000       0.00000000       0.67063576
In       0.00000000       0.00000000       3.07979798       0.00000000       0.00000000      -0.67063576
2
Properties=species:S:1:pos:R:3:forces:R:3 energy=-2.0913123873439727 pbc="F F F"
In       0.00000000       0.00000000       0.00000000       0.00000000       0.00000000       0.75686318
In       0.00000000       0.00000000       3.13939394       0.00000000       0.00000000      -0.75686318
2
Properties=species:S:1:pos:R:3:forces:R:3 energy=-2.043983610508692 pbc="F F F"
In       0.00000000       0.00000000       0.00000000       0.00000000       0.00000000       0.82895744
In       0.00000000       0.00000000       3.19898990       0.00000000       0.00000000      -0.82895744
2
Properties=species:S:1:pos:R:3:forces:R:3 energy=-1.9928199844990966 pbc="F F F"
In       0.00000000       0.00000000       0.00000000       0.00000000       0.00000000       0.88534653
In       0.00000000       0.00000000       3.25858586       0.00000000       0.00000000      -0.88534653
2
Properties=species:S:1:pos:R:3:forces:R:3 energy=-1.938785219328319 pbc="F F F"
In       0.00000000       0.00000000       0.00000000       0.00000000       0.00000000       0.92529446
In       0.00000000       0.00000000       3.31818182       0.00000000       0.00000000      -0.92529446
2
Properties=species:S:1:pos:R:3:forces:R:3 energy=-1.8828432067689889 pbc="F F F"
In       0.00000000       0.00000000       0.00000000       0.00000000       0.00000000       0.94968528
In       0.00000000       0.00000000       3.37777778       0.00000000       0.00000000      -0.94968528
2
Properties=species:S:1:pos:R:3:forces:R:3 energy=-1.8258556256641372 pbc="F F F"
In       0.00000000       0.00000000       0.00000000       0.00000000       0.00000000       0.96072233
In       0.00000000       0.00000000       3.43737374       0.00000000       0.00000000      -0.96072233
2
Properties=species:S:1:pos:R:3:forces:R:3 energy=-1.768551326039232 pbc="F F F"
In       0.00000000       0.00000000       0.00000000       0.00000000       0.00000000       0.96071607
In       0.00000000       0.00000000       3.49696970       0.00000000       0.00000000      -0.96071607
2
Properties=species:S:1:pos:R:3:forces:R:3 energy=-1.7115234024626993 pbc="F F F"
In       0.00000000       0.00000000       0.00000000       0.00000000       0.00000000       0.95180506
In       0.00000000       0.00000000       3.55656566       0.00000000       0.00000000      -0.95180506
2
Properties=species:S:1:pos:R:3:forces:R:3 energy=-1.6552290849374816 pbc="F F F"
In       0.00000000       0.00000000       0.00000000       0.00000000       0.00000000       0.93660873
In       0.00000000       0.00000000       3.61616162       0.00000000       0.00000000      -0.93660873
2
Properties=species:S:1:pos:R:3:forces:R:3 energy=-1.5999534607474397 pbc="F F F"
In       0.00000000       0.00000000       0.00000000       0.00000000       0.00000000       0.91808915
In       0.00000000       0.00000000       3.67575758       0.00000000       0.00000000      -0.91808915
2
Properties=species:S:1:pos:R:3:forces:R:3 energy=-1.5458174138772534 pbc="F F F"
In       0.00000000       0.00000000       0.00000000       0.00000000       0.00000000       0.89867467
In       0.00000000       0.00000000       3.73535354       0.00000000       0.00000000      -0.89867467
2
Properties=species:S:1:pos:R:3:forces:R:3 energy=-1.492831944144197 pbc="F F F"
In       0.00000000       0.00000000       0.00000000       0.00000000       0.00000000       0.87954956
In       0.00000000       0.00000000       3.79494949       0.00000000       0.00000000      -0.87954956
2
Properties=species:S:1:pos:R:3:forces:R:3 energy=-1.440979167470059 pbc="F F F"
In       0.00000000       0.00000000       0.00000000       0.00000000       0.00000000       0.86051112
In       0.00000000       0.00000000       3.85454545       0.00000000       0.00000000      -0.86051112
2
Properties=species:S:1:pos:R:3:forces:R:3 energy=-1.390289497824757 pbc="F F F"
In       0.00000000       0.00000000       0.00000000       0.00000000       0.00000000       0.84027737
In       0.00000000       0.00000000       3.91414141       0.00000000       0.00000000      -0.84027737
2
Properties=species:S:1:pos:R:3:forces:R:3 energy=-1.340885051263441 pbc="F F F"
In       0.00000000       0.00000000       0.00000000       0.00000000       0.00000000       0.81700540
In       0.00000000       0.00000000       3.97373737       0.00000000       0.00000000      -0.81700540
2
Properties=species:S:1:pos:R:3:forces:R:3 energy=-1.2930057872872462 pbc="F F F"
In       0.00000000       0.00000000       0.00000000       0.00000000       0.00000000       0.78886610
In       0.00000000       0.00000000       4.03333333       0.00000000       0.00000000      -0.78886610
2
Properties=species:S:1:pos:R:3:forces:R:3 energy=-1.246983023550397 pbc="F F F"
In       0.00000000       0.00000000       0.00000000       0.00000000       0.00000000       0.75450385
In       0.00000000       0.00000000       4.09292929       0.00000000       0.00000000      -0.75450385
2
Properties=species:S:1:pos:R:3:forces:R:3 energy=-1.2032093609452623 pbc="F F F"
In       0.00000000       0.00000000       0.00000000       0.00000000       0.00000000       0.71339947
In       0.00000000       0.00000000       4.15252525       0.00000000       0.00000000      -0.71339947
2
Properties=species:S:1:pos:R:3:forces:R:3 energy=-1.1620771521061317 pbc="F F F"
In       0.00000000       0.00000000       0.00000000       0.00000000       0.00000000       0.66605067
In       0.00000000       0.00000000       4.21212121       0.00000000       0.00000000      -0.66605067
2
Properties=species:S:1:pos:R:3:forces:R:3 energy=-1.1239159695532595 pbc="F F F"
In       0.00000000       0.00000000       0.00000000       0.00000000       0.00000000       0.61397129
In       0.00000000       0.00000000       4.27171717       0.00000000       0.00000000      -0.61397129
2
Properties=species:S:1:pos:R:3:forces:R:3 energy=-1.0889443124273903 pbc="F F F"
In       0.00000000       0.00000000       0.00000000       0.00000000       0.00000000       0.55950040
In       0.00000000       0.00000000       4.33131313       0.00000000       0.00000000      -0.55950040
2
Properties=species:S:1:pos:R:3:forces:R:3 energy=-1.0572211358262433 pbc="F F F"
In       0.00000000       0.00000000       0.00000000       0.00000000       0.00000000       0.50538880
In       0.00000000       0.00000000       4.39090909       0.00000000       0.00000000      -0.50538880
2
Properties=species:S:1:pos:R:3:forces:R:3 energy=-1.028644318090812 pbc="F F F"
In       0.00000000       0.00000000       0.00000000       0.00000000       0.00000000       0.45433435
In       0.00000000       0.00000000       4.45050505       0.00000000       0.00000000      -0.45433435
2
Properties=species:S:1:pos:R:3:forces:R:3 energy=-1.002964251248348 pbc="F F F"
In       0.00000000       0.00000000       0.00000000       0.00000000       0.00000000       0.40849328
In       0.00000000       0.00000000       4.51010101       0.00000000       0.00000000      -0.40849328
2
Properties=species:S:1:pos:R:3:forces:R:3 energy=-0.9798250508285752 pbc="F F F"
In       0.00000000       0.00000000       0.00000000       0.00000000       0.00000000       0.36916938
In       0.00000000       0.00000000       4.56969697       0.00000000       0.00000000      -0.36916938
2
Properties=species:S:1:pos:R:3:forces:R:3 energy=-0.9588243105640561 pbc="F F F"
In       0.00000000       0.00000000       0.00000000       0.00000000       0.00000000       0.33673811
In       0.00000000       0.00000000       4.62929293       0.00000000       0.00000000      -0.33673811
2
Properties=species:S:1:pos:R:3:forces:R:3 energy=-0.9395596176037682 pbc="F F F"
In       0.00000000       0.00000000       0.00000000       0.00000000       0.00000000       0.31080505
In       0.00000000       0.00000000       4.68888889       0.00000000       0.00000000      -0.31080505
2
Properties=species:S:1:pos:R:3:forces:R:3 energy=-0.921667561293232 pbc="F F F"
In       0.00000000       0.00000000       0.00000000       0.00000000       0.00000000       0.29047030
In       0.00000000       0.00000000       4.74848485       0.00000000       0.00000000      -0.29047030
2
Properties=species:S:1:pos:R:3:forces:R:3 energy=-0.9048482580259629 pbc="F F F"
In       0.00000000       0.00000000       0.00000000       0.00000000       0.00000000       0.27464581
In       0.00000000       0.00000000       4.80808081       0.00000000       0.00000000      -0.27464581
2
Properties=species:S:1:pos:R:3:forces:R:3 energy=-0.88886397833677 pbc="F F F"
In       0.00000000       0.00000000       0.00000000       0.00000000       0.00000000       0.26224893
In       0.00000000       0.00000000       4.86767677       0.00000000       0.00000000      -0.26224893
2
Properties=species:S:1:pos:R:3:forces:R:3 energy=-0.8735404083507053 pbc="F F F"
In       0.00000000       0.00000000       0.00000000       0.00000000       0.00000000       0.25233507
In       0.00000000       0.00000000       4.92727273       0.00000000       0.00000000      -0.25233507
2
Properties=species:S:1:pos:R:3:forces:R:3 energy=-0.8587546825047285 pbc="F F F"
In       0.00000000       0.00000000       0.00000000       0.00000000       0.00000000       0.24407446
In       0.00000000       0.00000000       4.98686869       0.00000000       0.00000000      -0.24407446
2
Properties=species:S:1:pos:R:3:forces:R:3 energy=-0.8444320508552916 pbc="F F F"
In       0.00000000       0.00000000       0.00000000       0.00000000       0.00000000       0.23671846
In       0.00000000       0.00000000       5.04646465       0.00000000       0.00000000      -0.23671846
2
Properties=species:S:1:pos:R:3:forces:R:3 energy=-0.8305374704876516 pbc="F F F"
In       0.00000000       0.00000000       0.00000000       0.00000000       0.00000000       0.22952579
In       0.00000000       0.00000000       5.10606061       0.00000000       0.00000000      -0.22952579
2
Properties=species:S:1:pos:R:3:forces:R:3 energy=-0.8170840414490048 pbc="F F F"
In       0.00000000       0.00000000       0.00000000       0.00000000       0.00000000       0.22173983
In       0.00000000       0.00000000       5.16565657       0.00000000       0.00000000      -0.22173983
2
Properties=species:S:1:pos:R:3:forces:R:3 energy=-0.804133444987804 pbc="F F F"
In       0.00000000       0.00000000       0.00000000       0.00000000       0.00000000       0.21261862
In       0.00000000       0.00000000       5.22525253       0.00000000       0.00000000      -0.21261862
2
Properties=species:S:1:pos:R:3:forces:R:3 energy=-0.7917824913269956 pbc="F F F"
In       0.00000000       0.00000000       0.00000000       0.00000000       0.00000000       0.20151564
In       0.00000000       0.00000000       5.28484848       0.00000000       0.00000000      -0.20151564
2
Properties=species:S:1:pos:R:3:forces:R:3 energy=-0.7801627382774847 pbc="F F F"
In       0.00000000       0.00000000       0.00000000       0.00000000       0.00000000       0.18799183
In       0.00000000       0.00000000       5.34444444       0.00000000       0.00000000      -0.18799183
2
Properties=species:S:1:pos:R:3:forces:R:3 energy=-0.7694257356287435 pbc="F F F"
In       0.00000000       0.00000000       0.00000000       0.00000000       0.00000000       0.17190106
In       0.00000000       0.00000000       5.40404040       0.00000000       0.00000000      -0.17190106
2
Properties=species:S:1:pos:R:3:forces:R:3 energy=-0.759718614170941 pbc="F F F"
In       0.00000000       0.00000000       0.00000000       0.00000000       0.00000000       0.15344261
In       0.00000000       0.00000000       5.46363636       0.00000000       0.00000000      -0.15344261
2
Properties=species:S:1:pos:R:3:forces:R:3 energy=-0.7511762879898796 pbc="F F F"
In       0.00000000       0.00000000       0.00000000       0.00000000       0.00000000       0.13312559
In       0.00000000       0.00000000       5.52323232       0.00000000       0.00000000      -0.13312559
2
Properties=species:S:1:pos:R:3:forces:R:3 energy=-0.7438756143274055 pbc="F F F"
In       0.00000000       0.00000000       0.00000000       0.00000000       0.00000000       0.11174889
In       0.00000000       0.00000000       5.58282828       0.00000000       0.00000000      -0.11174889
2
Properties=species:S:1:pos:R:3:forces:R:3 energy=-0.7378585291030711 pbc="F F F"
In       0.00000000       0.00000000       0.00000000       0.00000000       0.00000000       0.09028175
In       0.00000000       0.00000000       5.64242424       0.00000000       0.00000000      -0.09028175
2
Properties=species:S:1:pos:R:3:forces:R:3 energy=-0.7330944058730139 pbc="F F F"
In       0.00000000       0.00000000       0.00000000       0.00000000       0.00000000       0.06974456
In       0.00000000       0.00000000       5.70202020       0.00000000       0.00000000      -0.06974456
2
Properties=species:S:1:pos:R:3:forces:R:3 energy=-0.7295080151600878 pbc="F F F"
In       0.00000000       0.00000000       0.00000000       0.00000000       0.00000000       0.05113627
In       0.00000000       0.00000000       5.76161616       0.00000000       0.00000000      -0.05113627
2
Properties=species:S:1:pos:R:3:forces:R:3 energy=-0.726944643065382 pbc="F F F"
In       0.00000000       0.00000000       0.00000000       0.00000000       0.00000000       0.03537717
In       0.00000000       0.00000000       5.82121212       0.00000000       0.00000000      -0.03537717
2
Properties=species:S:1:pos:R:3:forces:R:3 energy=-0.725221024313145 pbc="F F F"
In       0.00000000       0.00000000       0.00000000       0.00000000       0.00000000       0.02324395
In       0.00000000       0.00000000       5.88080808       0.00000000       0.00000000      -0.02324395
2
Properties=species:S:1:pos:R:3:forces:R:3 energy=-0.7240891543118506 pbc="F F F"
In       0.00000000       0.00000000       0.00000000       0.00000000       0.00000000       0.01536023
In       0.00000000       0.00000000       5.94040404       0.00000000       0.00000000      -0.01536023
2
Properties=species:S:1:pos:R:3:forces:R:3 energy=-0.7232928856403121 pbc="F F F"
In       0.00000000       0.00000000       0.00000000       0.00000000       0.00000000       0.01224228
In       0.00000000       0.00000000       6.00000000       0.00000000       0.00000000      -0.01224228
