2
Properties=species:S:1:pos:R:3:forces:R:3 energy=87052.1013068955 pbc="F F F"
Ir       0.00000000       0.00000000       0.00000000       0.00000000       0.00000000 -2206361.50000000
Ir       0.00000000       0.00000000       0.10000000       0.00000000       0.00000000 2206361.50000000
2
Properties=species:S:1:pos:R:3:forces:R:3 energy=23845.593494395507 pbc="F F F"
Ir       0.00000000       0.00000000       0.00000000       0.00000000       0.00000000 -451700.34375000
Ir       0.00000000       0.00000000       0.15959596       0.00000000       0.00000000  451700.34375000
2
Properties=species:S:1:pos:R:3:forces:R:3 energy=8559.433338145509 pbc="F F F"
Ir       0.00000000       0.00000000       0.00000000       0.00000000       0.00000000 -134893.26562500
Ir       0.00000000       0.00000000       0.21919192       0.00000000       0.00000000  134893.26562500
2
Properties=species:S:1:pos:R:3:forces:R:3 energy=3555.5991096330513 pbc="F F F"
Ir       0.00000000       0.00000000       0.00000000       0.00000000       0.00000000  -49249.08593750
Ir       0.00000000       0.00000000       0.27878788       0.00000000       0.00000000   49249.08593750
2
Properties=species:S:1:pos:R:3:forces:R:3 energy=1626.2056770158638 pbc="F F F"
Ir       0.00000000       0.00000000       0.00000000       0.00000000       0.00000000  -20248.86523438
Ir       0.00000000       0.00000000       0.33838384       0.00000000       0.00000000   20248.86523438
2
Properties=species:S:1:pos:R:3:forces:R:3 energy=803.1395149096567 pbc="F F F"
Ir       0.00000000       0.00000000       0.00000000       0.00000000       0.00000000   -9026.54296875
Ir       0.00000000       0.00000000       0.39797980       0.00000000       0.00000000    9026.54296875
2
Properties=species:S:1:pos:R:3:forces:R:3 energy=425.7806587211561 pbc="F F F"
Ir       0.00000000       0.00000000       0.00000000       0.00000000       0.00000000   -4279.54589844
Ir       0.00000000       0.00000000       0.45757576       0.00000000       0.00000000    4279.54589844
2
Properties=species:S:1:pos:R:3:forces:R:3 energy=242.90260698235053 pbc="F F F"
Ir       0.00000000       0.00000000       0.00000000       0.00000000       0.00000000   -2126.56933594
Ir       0.00000000       0.00000000       0.51717172       0.00000000       0.00000000    2126.56933594
2
Properties=species:S:1:pos:R:3:forces:R:3 energy=150.7086830701691 pbc="F F F"
Ir       0.00000000       0.00000000       0.00000000       0.00000000       0.00000000   -1086.98840332
Ir       0.00000000       0.00000000       0.57676768       0.00000000       0.00000000    1086.98840332
2
Properties=species:S:1:pos:R:3:forces:R:3 energy=103.46217739622084 pbc="F F F"
Ir       0.00000000       0.00000000       0.00000000       0.00000000       0.00000000    -555.24884033
Ir       0.00000000       0.00000000       0.63636364       0.00000000       0.00000000     555.24884033
2
Properties=species:S:1:pos:R:3:forces:R:3 energy=79.66025946147035 pbc="F F F"
Ir       0.00000000       0.00000000       0.00000000       0.00000000       0.00000000    -273.01193237
Ir       0.00000000       0.00000000       0.69595960       0.00000000       0.00000000     273.01193237
2
Properties=species:S:1:pos:R:3:forces:R:3 energy=68.23140371752972 pbc="F F F"
Ir       0.00000000       0.00000000       0.00000000       0.00000000       0.00000000    -128.02233887
Ir       0.00000000       0.00000000       0.75555556       0.00000000       0.00000000     128.02233887
2
Properties=species:S:1:pos:R:3:forces:R:3 energy=62.73119031939821 pbc="F F F"
Ir       0.00000000       0.00000000       0.00000000       0.00000000       0.00000000     -67.59130859
Ir       0.00000000       0.00000000       0.81515152       0.00000000       0.00000000      67.59130859
2
Properties=species:S:1:pos:R:3:forces:R:3 energy=59.17877670525421 pbc="F F F"
Ir       0.00000000       0.00000000       0.00000000       0.00000000       0.00000000     -57.44375229
Ir       0.00000000       0.00000000       0.87474747       0.00000000       0.00000000      57.44375229
2
Properties=species:S:1:pos:R:3:forces:R:3 energy=55.46751541848866 pbc="F F F"
Ir       0.00000000       0.00000000       0.00000000       0.00000000       0.00000000     -67.94224548
Ir       0.00000000       0.00000000       0.93434343       0.00000000       0.00000000      67.94224548
2
Properties=species:S:1:pos:R:3:forces:R:3 energy=50.382455938759826 pbc="F F F"
Ir       0.00000000       0.00000000       0.00000000       0.00000000       0.00000000    -103.78993988
Ir       0.00000000       0.00000000       0.99393939       0.00000000       0.00000000     103.78993988
2
Properties=species:S:1:pos:R:3:forces:R:3 energy=44.18847182139153 pbc="F F F"
Ir       0.00000000       0.00000000       0.00000000       0.00000000       0.00000000    -104.29673767
Ir       0.00000000       0.00000000       1.05353535       0.00000000       0.00000000     104.29673767
2
Properties=species:S:1:pos:R:3:forces:R:3 energy=37.938839198087585 pbc="F F F"
Ir       0.00000000       0.00000000       0.00000000       0.00000000       0.00000000    -111.81758118
Ir       0.00000000       0.00000000       1.11313131       0.00000000       0.00000000     111.81758118
2
Properties=species:S:1:pos:R:3:forces:R:3 energy=30.164728023561842 pbc="F F F"
Ir       0.00000000       0.00000000       0.00000000       0.00000000       0.00000000    -134.97030640
Ir       0.00000000       0.00000000       1.17272727       0.00000000       0.00000000     134.97030640
2
Properties=species:S:1:pos:R:3:forces:R:3 energy=22.511714876235402 pbc="F F F"
Ir       0.00000000       0.00000000       0.00000000       0.00000000       0.00000000    -121.69635010
Ir       0.00000000       0.00000000       1.23232323       0.00000000       0.00000000     121.69635010
2
Properties=species:S:1:pos:R:3:forces:R:3 energy=15.680648443220953 pbc="F F F"
Ir       0.00000000       0.00000000       0.00000000       0.00000000       0.00000000    -107.20893860
Ir       0.00000000       0.00000000       1.29191919       0.00000000       0.00000000     107.20893860
2
Properties=species:S:1:pos:R:3:forces:R:3 energy=9.77213289270428 pbc="F F F"
Ir       0.00000000       0.00000000       0.00000000       0.00000000       0.00000000     -90.76493835
Ir       0.00000000       0.00000000       1.35151515       0.00000000       0.00000000      90.76493835
2
Properties=species:S:1:pos:R:3:forces:R:3 energy=4.908051301741139 pbc="F F F"
Ir       0.00000000       0.00000000       0.00000000       0.00000000       0.00000000     -72.09893799
Ir       0.00000000       0.00000000       1.41111111       0.00000000       0.00000000      72.09893799
2
Properties=species:S:1:pos:R:3:forces:R:3 energy=1.1835790886528645 pbc="F F F"
Ir       0.00000000       0.00000000       0.00000000       0.00000000       0.00000000     -53.27523041
Ir       0.00000000       0.00000000       1.47070707       0.00000000       0.00000000      53.27523041
2
Properties=species:S:1:pos:R:3:forces:R:3 energy=-1.513724512880461 pbc="F F F"
Ir       0.00000000       0.00000000       0.00000000       0.00000000       0.00000000     -37.84703827
Ir       0.00000000       0.00000000       1.53030303       0.00000000       0.00000000      37.84703827
2
Properties=species:S:1:pos:R:3:forces:R:3 energy=-3.384441850740061 pbc="F F F"
Ir       0.00000000       0.00000000       0.00000000       0.00000000       0.00000000     -25.35130310
Ir       0.00000000       0.00000000       1.58989899       0.00000000       0.00000000      25.35130310
2
Properties=species:S:1:pos:R:3:forces:R:3 energy=-4.59269002478042 pbc="F F F"
Ir       0.00000000       0.00000000       0.00000000       0.00000000       0.00000000     -15.75906086
Ir       0.00000000       0.00000000       1.64949495       0.00000000       0.00000000      15.75906086
2
Properties=species:S:1:pos:R:3:forces:R:3 energy=-5.332483688459005 pbc="F F F"
Ir       0.00000000       0.00000000       0.00000000       0.00000000       0.00000000      -9.61838913
Ir       0.00000000       0.00000000       1.70909091       0.00000000       0.00000000       9.61838913
2
Properties=species:S:1:pos:R:3:forces:R:3 energy=-5.79409628274313 pbc="F F F"
Ir       0.00000000       0.00000000       0.00000000       0.00000000       0.00000000      -6.23226261
Ir       0.00000000       0.00000000       1.76868687       0.00000000       0.00000000       6.23226261
2
Properties=species:S:1:pos:R:3:forces:R:3 energy=-6.106552026480199 pbc="F F F"
Ir       0.00000000       0.00000000       0.00000000       0.00000000       0.00000000      -4.43018913
Ir       0.00000000       0.00000000       1.82828283       0.00000000       0.00000000       4.43018913
2
Properties=species:S:1:pos:R:3:forces:R:3 energy=-6.335450918735231 pbc="F F F"
Ir       0.00000000       0.00000000       0.00000000       0.00000000       0.00000000      -3.31118226
Ir       0.00000000       0.00000000       1.88787879       0.00000000       0.00000000       3.31118226
2
Properties=species:S:1:pos:R:3:forces:R:3 energy=-6.50419232021535 pbc="F F F"
Ir       0.00000000       0.00000000       0.00000000       0.00000000       0.00000000      -2.35155821
Ir       0.00000000       0.00000000       1.94747475       0.00000000       0.00000000       2.35155821
2
Properties=species:S:1:pos:R:3:forces:R:3 energy=-6.614164834098671 pbc="F F F"
Ir       0.00000000       0.00000000       0.00000000       0.00000000       0.00000000      -1.31937599
Ir       0.00000000       0.00000000       2.00707071       0.00000000       0.00000000       1.31937599
2
Properties=species:S:1:pos:R:3:forces:R:3 energy=-6.659239856829229 pbc="F F F"
Ir       0.00000000       0.00000000       0.00000000       0.00000000       0.00000000      -0.17957394
Ir       0.00000000       0.00000000       2.06666667       0.00000000       0.00000000       0.17957394
2
Properties=species:S:1:pos:R:3:forces:R:3 energy=-6.634947694349407 pbc="F F F"
Ir       0.00000000       0.00000000       0.00000000       0.00000000       0.00000000       0.99011368
Ir       0.00000000       0.00000000       2.12626263       0.00000000       0.00000000      -0.99011368
2
Properties=species:S:1:pos:R:3:forces:R:3 energy=-6.543052690608277 pbc="F F F"
Ir       0.00000000       0.00000000       0.00000000       0.00000000       0.00000000       2.06792831
Ir       0.00000000       0.00000000       2.18585859       0.00000000       0.00000000      -2.06792831
2
Properties=species:S:1:pos:R:3:forces:R:3 energy=-6.392726979921982 pbc="F F F"
Ir       0.00000000       0.00000000       0.00000000       0.00000000       0.00000000       2.93228126
Ir       0.00000000       0.00000000       2.24545455       0.00000000       0.00000000      -2.93228126
2
Properties=species:S:1:pos:R:3:forces:R:3 energy=-6.19968361190014 pbc="F F F"
Ir       0.00000000       0.00000000       0.00000000       0.00000000       0.00000000       3.48958206
Ir       0.00000000       0.00000000       2.30505051       0.00000000       0.00000000      -3.48958206
2
Properties=species:S:1:pos:R:3:forces:R:3 energy=-5.983732664536732 pbc="F F F"
Ir       0.00000000       0.00000000       0.00000000       0.00000000       0.00000000       3.70027566
Ir       0.00000000       0.00000000       2.36464646       0.00000000       0.00000000      -3.70027566
2
Properties=species:S:1:pos:R:3:forces:R:3 energy=-5.764895283885777 pbc="F F F"
Ir       0.00000000       0.00000000       0.00000000       0.00000000       0.00000000       3.59848261
Ir       0.00000000       0.00000000       2.42424242       0.00000000       0.00000000      -3.59848261
2
Properties=species:S:1:pos:R:3:forces:R:3 energy=-5.559042972989309 pbc="F F F"
Ir       0.00000000       0.00000000       0.00000000       0.00000000       0.00000000       3.28528476
Ir       0.00000000       0.00000000       2.48383838       0.00000000       0.00000000      -3.28528476
2
Properties=species:S:1:pos:R:3:forces:R:3 energy=-5.374930417205487 pbc="F F F"
Ir       0.00000000       0.00000000       0.00000000       0.00000000       0.00000000       2.89009094
Ir       0.00000000       0.00000000       2.54343434       0.00000000       0.00000000      -2.89009094
2
Properties=species:S:1:pos:R:3:forces:R:3 energy=-5.213966819623452 pbc="F F F"
Ir       0.00000000       0.00000000       0.00000000       0.00000000       0.00000000       2.52352858
Ir       0.00000000       0.00000000       2.60303030       0.00000000       0.00000000      -2.52352858
2
Properties=species:S:1:pos:R:3:forces:R:3 energy=-5.072255799376749 pbc="F F F"
Ir       0.00000000       0.00000000       0.00000000       0.00000000       0.00000000       2.25039363
Ir       0.00000000       0.00000000       2.66262626       0.00000000       0.00000000      -2.25039363
2
Properties=species:S:1:pos:R:3:forces:R:3 energy=-4.943603202085343 pbc="F F F"
Ir       0.00000000       0.00000000       0.00000000       0.00000000       0.00000000       2.08313894
Ir       0.00000000       0.00000000       2.72222222       0.00000000       0.00000000      -2.08313894
2
Properties=species:S:1:pos:R:3:forces:R:3 energy=-4.822470919174671 pbc="F F F"
Ir       0.00000000       0.00000000       0.00000000       0.00000000       0.00000000       1.99073911
Ir       0.00000000       0.00000000       2.78181818       0.00000000       0.00000000      -1.99073911
2
Properties=species:S:1:pos:R:3:forces:R:3 energy=-4.705655303918341 pbc="F F F"
Ir       0.00000000       0.00000000       0.00000000       0.00000000       0.00000000       1.93257737
Ir       0.00000000       0.00000000       2.84141414       0.00000000       0.00000000      -1.93257737
2
Properties=species:S:1:pos:R:3:forces:R:3 energy=-4.591945622100009 pbc="F F F"
Ir       0.00000000       0.00000000       0.00000000       0.00000000       0.00000000       1.88381541
Ir       0.00000000       0.00000000       2.90101010       0.00000000       0.00000000      -1.88381541
2
Properties=species:S:1:pos:R:3:forces:R:3 energy=-4.481149653160549 pbc="F F F"
Ir       0.00000000       0.00000000       0.00000000       0.00000000       0.00000000       1.83377373
Ir       0.00000000       0.00000000       2.96060606       0.00000000       0.00000000      -1.83377373
2
Properties=species:S:1:pos:R:3:forces:R:3 energy=-4.373459710773096 pbc="F F F"
Ir       0.00000000       0.00000000       0.00000000       0.00000000       0.00000000       1.77952063
Ir       0.00000000       0.00000000       3.02020202       0.00000000       0.00000000      -1.77952063
2
Properties=species:S:1:pos:R:3:forces:R:3 energy=-4.269115765691252 pbc="F F F"
Ir       0.00000000       0.00000000       0.00000000       0.00000000       0.00000000       1.72174299
Ir       0.00000000       0.00000000       3.07979798       0.00000000       0.00000000      -1.72174299
2
Properties=species:S:1:pos:R:3:forces:R:3 energy=-4.168292446422374 pbc="F F F"
Ir       0.00000000       0.00000000       0.00000000       0.00000000       0.00000000       1.66136217
Ir       0.00000000       0.00000000       3.13939394       0.00000000       0.00000000      -1.66136217
2
Properties=species:S:1:pos:R:3:forces:R:3 energy=-4.071167559213645 pbc="F F F"
Ir       0.00000000       0.00000000       0.00000000       0.00000000       0.00000000       1.59719670
Ir       0.00000000       0.00000000       3.19898990       0.00000000       0.00000000      -1.59719670
2
Properties=species:S:1:pos:R:3:forces:R:3 energy=-3.978069592837777 pbc="F F F"
Ir       0.00000000       0.00000000       0.00000000       0.00000000       0.00000000       1.52538967
Ir       0.00000000       0.00000000       3.25858586       0.00000000       0.00000000      -1.52538967
2
Properties=species:S:1:pos:R:3:forces:R:3 energy=-3.8896097301381403 pbc="F F F"
Ir       0.00000000       0.00000000       0.00000000       0.00000000       0.00000000       1.44074225
Ir       0.00000000       0.00000000       3.31818182       0.00000000       0.00000000      -1.44074225
2
Properties=species:S:1:pos:R:3:forces:R:3 energy=-3.806682057777094 pbc="F F F"
Ir       0.00000000       0.00000000       0.00000000       0.00000000       0.00000000       1.33929622
Ir       0.00000000       0.00000000       3.37777778       0.00000000       0.00000000      -1.33929622
2
Properties=species:S:1:pos:R:3:forces:R:3 energy=-3.730321285029157 pbc="F F F"
Ir       0.00000000       0.00000000       0.00000000       0.00000000       0.00000000       1.22065198
Ir       0.00000000       0.00000000       3.43737374       0.00000000       0.00000000      -1.22065198
2
Properties=species:S:1:pos:R:3:forces:R:3 energy=-3.661455982887543 pbc="F F F"
Ir       0.00000000       0.00000000       0.00000000       0.00000000       0.00000000       1.08873415
Ir       0.00000000       0.00000000       3.49696970       0.00000000       0.00000000      -1.08873415
2
Properties=species:S:1:pos:R:3:forces:R:3 energy=-3.600675279981171 pbc="F F F"
Ir       0.00000000       0.00000000       0.00000000       0.00000000       0.00000000       0.95066386
Ir       0.00000000       0.00000000       3.55656566       0.00000000       0.00000000      -0.95066386
2
Properties=species:S:1:pos:R:3:forces:R:3 energy=-3.5481032033121926 pbc="F F F"
Ir       0.00000000       0.00000000       0.00000000       0.00000000       0.00000000       0.81461608
Ir       0.00000000       0.00000000       3.61616162       0.00000000       0.00000000      -0.81461608
2
Properties=species:S:1:pos:R:3:forces:R:3 energy=-3.5033952160189004 pbc="F F F"
Ir       0.00000000       0.00000000       0.00000000       0.00000000       0.00000000       0.68779171
Ir       0.00000000       0.00000000       3.67575758       0.00000000       0.00000000      -0.68779171
2
Properties=species:S:1:pos:R:3:forces:R:3 energy=-3.465837952369525 pbc="F F F"
Ir       0.00000000       0.00000000       0.00000000       0.00000000       0.00000000       0.57530236
Ir       0.00000000       0.00000000       3.73535354       0.00000000       0.00000000      -0.57530236
2
Properties=species:S:1:pos:R:3:forces:R:3 energy=-3.4344807424545256 pbc="F F F"
Ir       0.00000000       0.00000000       0.00000000       0.00000000       0.00000000       0.48004019
Ir       0.00000000       0.00000000       3.79494949       0.00000000       0.00000000      -0.48004019
2
Properties=species:S:1:pos:R:3:forces:R:3 energy=-3.408254893504127 pbc="F F F"
Ir       0.00000000       0.00000000       0.00000000       0.00000000       0.00000000       0.40316504
Ir       0.00000000       0.00000000       3.85454545       0.00000000       0.00000000      -0.40316504
2
Properties=species:S:1:pos:R:3:forces:R:3 energy=-3.386060071105787 pbc="F F F"
Ir       0.00000000       0.00000000       0.00000000       0.00000000       0.00000000       0.34471929
Ir       0.00000000       0.00000000       3.91414141       0.00000000       0.00000000      -0.34471929
2
Properties=species:S:1:pos:R:3:forces:R:3 energy=-3.366814408287492 pbc="F F F"
Ir       0.00000000       0.00000000       0.00000000       0.00000000       0.00000000       0.30400953
Ir       0.00000000       0.00000000       3.97373737       0.00000000       0.00000000      -0.30400953
2
Properties=species:S:1:pos:R:3:forces:R:3 energy=-3.3494980909363066 pbc="F F F"
Ir       0.00000000       0.00000000       0.00000000       0.00000000       0.00000000       0.27971524
Ir       0.00000000       0.00000000       4.03333333       0.00000000       0.00000000      -0.27971524
2
Properties=species:S:1:pos:R:3:forces:R:3 energy=-3.33318791348515 pbc="F F F"
Ir       0.00000000       0.00000000       0.00000000       0.00000000       0.00000000       0.26983017
Ir       0.00000000       0.00000000       4.09292929       0.00000000       0.00000000      -0.26983017
2
Properties=species:S:1:pos:R:3:forces:R:3 energy=-3.3171035407886893 pbc="F F F"
Ir       0.00000000       0.00000000       0.00000000       0.00000000       0.00000000       0.27164409
Ir       0.00000000       0.00000000       4.15252525       0.00000000       0.00000000      -0.27164409
2
Properties=species:S:1:pos:R:3:forces:R:3 energy=-3.300643278077768 pbc="F F F"
Ir       0.00000000       0.00000000       0.00000000       0.00000000       0.00000000       0.28186387
Ir       0.00000000       0.00000000       4.21212121       0.00000000       0.00000000      -0.28186387
2
Properties=species:S:1:pos:R:3:forces:R:3 energy=-3.2834119627653395 pbc="F F F"
Ir       0.00000000       0.00000000       0.00000000       0.00000000       0.00000000       0.29689816
Ir       0.00000000       0.00000000       4.27171717       0.00000000       0.00000000      -0.29689816
2
Properties=species:S:1:pos:R:3:forces:R:3 energy=-3.2652297700947805 pbc="F F F"
Ir       0.00000000       0.00000000       0.00000000       0.00000000       0.00000000       0.31323904
Ir       0.00000000       0.00000000       4.33131313       0.00000000       0.00000000      -0.31323904
2
Properties=species:S:1:pos:R:3:forces:R:3 energy=-3.2461113281715157 pbc="F F F"
Ir       0.00000000       0.00000000       0.00000000       0.00000000       0.00000000       0.32785687
Ir       0.00000000       0.00000000       4.39090909       0.00000000       0.00000000      -0.32785687
2
Properties=species:S:1:pos:R:3:forces:R:3 energy=-3.2262310300596257 pbc="F F F"
Ir       0.00000000       0.00000000       0.00000000       0.00000000       0.00000000       0.33850521
Ir       0.00000000       0.00000000       4.45050505       0.00000000       0.00000000      -0.33850521
2
Properties=species:S:1:pos:R:3:forces:R:3 energy=-3.2058696185166644 pbc="F F F"
Ir       0.00000000       0.00000000       0.00000000       0.00000000       0.00000000       0.34389132
Ir       0.00000000       0.00000000       4.51010101       0.00000000       0.00000000      -0.34389132
2
Properties=species:S:1:pos:R:3:forces:R:3 energy=-3.18535379089733 pbc="F F F"
Ir       0.00000000       0.00000000       0.00000000       0.00000000       0.00000000       0.34367141
Ir       0.00000000       0.00000000       4.56969697       0.00000000       0.00000000      -0.34367141
2
Properties=species:S:1:pos:R:3:forces:R:3 energy=-3.1650095673144505 pbc="F F F"
Ir       0.00000000       0.00000000       0.00000000       0.00000000       0.00000000       0.33827206
Ir       0.00000000       0.00000000       4.62929293       0.00000000       0.00000000      -0.33827206
2
Properties=species:S:1:pos:R:3:forces:R:3 energy=-3.145119350784084 pbc="F F F"
Ir       0.00000000       0.00000000       0.00000000       0.00000000       0.00000000       0.32862693
Ir       0.00000000       0.00000000       4.68888889       0.00000000       0.00000000      -0.32862693
2
Properties=species:S:1:pos:R:3:forces:R:3 energy=-3.125902128979988 pbc="F F F"
Ir       0.00000000       0.00000000       0.00000000       0.00000000       0.00000000       0.31584391
Ir       0.00000000       0.00000000       4.74848485       0.00000000       0.00000000      -0.31584391
2
Properties=species:S:1:pos:R:3:forces:R:3 energy=-3.1075144635858982 pbc="F F F"
Ir       0.00000000       0.00000000       0.00000000       0.00000000       0.00000000       0.30097789
Ir       0.00000000       0.00000000       4.80808081       0.00000000       0.00000000      -0.30097789
2
Properties=species:S:1:pos:R:3:forces:R:3 energy=-3.0900522225820226 pbc="F F F"
Ir       0.00000000       0.00000000       0.00000000       0.00000000       0.00000000       0.28487796
Ir       0.00000000       0.00000000       4.86767677       0.00000000       0.00000000      -0.28487796
2
Properties=species:S:1:pos:R:3:forces:R:3 energy=-3.0735707001044483 pbc="F F F"
Ir       0.00000000       0.00000000       0.00000000       0.00000000       0.00000000       0.26816469
Ir       0.00000000       0.00000000       4.92727273       0.00000000       0.00000000      -0.26816469
2
Properties=species:S:1:pos:R:3:forces:R:3 energy=-3.0580931615001234 pbc="F F F"
Ir       0.00000000       0.00000000       0.00000000       0.00000000       0.00000000       0.25123030
Ir       0.00000000       0.00000000       4.98686869       0.00000000       0.00000000      -0.25123030
2
Properties=species:S:1:pos:R:3:forces:R:3 energy=-3.043627559553882 pbc="F F F"
Ir       0.00000000       0.00000000       0.00000000       0.00000000       0.00000000       0.23429175
Ir       0.00000000       0.00000000       5.04646465       0.00000000       0.00000000      -0.23429175
2
Properties=species:S:1:pos:R:3:forces:R:3 energy=-3.0301678842204534 pbc="F F F"
Ir       0.00000000       0.00000000       0.00000000       0.00000000       0.00000000       0.21739668
Ir       0.00000000       0.00000000       5.10606061       0.00000000       0.00000000      -0.21739668
2
Properties=species:S:1:pos:R:3:forces:R:3 energy=-3.017714513734884 pbc="F F F"
Ir       0.00000000       0.00000000       0.00000000       0.00000000       0.00000000       0.20044850
Ir       0.00000000       0.00000000       5.16565657       0.00000000       0.00000000      -0.20044850
2
Properties=species:S:1:pos:R:3:forces:R:3 energy=-3.0062789703128328 pbc="F F F"
Ir       0.00000000       0.00000000       0.00000000       0.00000000       0.00000000       0.18329534
Ir       0.00000000       0.00000000       5.22525253       0.00000000       0.00000000      -0.18329534
2
Properties=species:S:1:pos:R:3:forces:R:3 energy=-2.9958753275782533 pbc="F F F"
Ir       0.00000000       0.00000000       0.00000000       0.00000000       0.00000000       0.16579095
Ir       0.00000000       0.00000000       5.28484848       0.00000000       0.00000000      -0.16579095
2
Properties=species:S:1:pos:R:3:forces:R:3 energy=-2.9865258177357803 pbc="F F F"
Ir       0.00000000       0.00000000       0.00000000       0.00000000       0.00000000       0.14789517
Ir       0.00000000       0.00000000       5.34444444       0.00000000       0.00000000      -0.14789517
2
Properties=species:S:1:pos:R:3:forces:R:3 energy=-2.978251975237257 pbc="F F F"
Ir       0.00000000       0.00000000       0.00000000       0.00000000       0.00000000       0.12973019
Ir       0.00000000       0.00000000       5.40404040       0.00000000       0.00000000      -0.12973019
2
Properties=species:S:1:pos:R:3:forces:R:3 energy=-2.971061623546284 pbc="F F F"
Ir       0.00000000       0.00000000       0.00000000       0.00000000       0.00000000       0.11156901
Ir       0.00000000       0.00000000       5.46363636       0.00000000       0.00000000      -0.11156901
2
Properties=species:S:1:pos:R:3:forces:R:3 energy=-2.9649476957166114 pbc="F F F"
Ir       0.00000000       0.00000000       0.00000000       0.00000000       0.00000000       0.09380306
Ir       0.00000000       0.00000000       5.52323232       0.00000000       0.00000000      -0.09380306
2
Properties=species:S:1:pos:R:3:forces:R:3 energy=-2.959866855915573 pbc="F F F"
Ir       0.00000000       0.00000000       0.00000000       0.00000000       0.00000000       0.07685733
Ir       0.00000000       0.00000000       5.58282828       0.00000000       0.00000000      -0.07685733
2
Properties=species:S:1:pos:R:3:forces:R:3 energy=-2.955762389191592 pbc="F F F"
Ir       0.00000000       0.00000000       0.00000000       0.00000000       0.00000000       0.06113600
Ir       0.00000000       0.00000000       5.64242424       0.00000000       0.00000000      -0.06113600
2
Properties=species:S:1:pos:R:3:forces:R:3 energy=-2.952546885616926 pbc="F F F"
Ir       0.00000000       0.00000000       0.00000000       0.00000000       0.00000000       0.04699491
Ir       0.00000000       0.00000000       5.70202020       0.00000000       0.00000000      -0.04699491
2
Properties=species:S:1:pos:R:3:forces:R:3 energy=-2.9501239538013877 pbc="F F F"
Ir       0.00000000       0.00000000       0.00000000       0.00000000       0.00000000       0.03472537
Ir       0.00000000       0.00000000       5.76161616       0.00000000       0.00000000      -0.03472537
2
Properties=species:S:1:pos:R:3:forces:R:3 energy=-2.9483665501442227 pbc="F F F"
Ir       0.00000000       0.00000000       0.00000000       0.00000000       0.00000000       0.02459234
Ir       0.00000000       0.00000000       5.82121212       0.00000000       0.00000000      -0.02459234
2
Properties=species:S:1:pos:R:3:forces:R:3 energy=-2.9471461268813384 pbc="F F F"
Ir       0.00000000       0.00000000       0.00000000       0.00000000       0.00000000       0.01685554
Ir       0.00000000       0.00000000       5.88080808       0.00000000       0.00000000      -0.01685554
2
Properties=species:S:1:pos:R:3:forces:R:3 energy=-2.9463042594824334 pbc="F F F"
Ir       0.00000000       0.00000000       0.00000000       0.00000000       0.00000000       0.01177993
Ir       0.00000000       0.00000000       5.94040404       0.00000000       0.00000000      -0.01177993
2
Properties=species:S:1:pos:R:3:forces:R:3 energy=-2.9456820172776923 pbc="F F F"
Ir       0.00000000       0.00000000       0.00000000       0.00000000       0.00000000       0.00964539
Ir       0.00000000       0.00000000       6.00000000       0.00000000       0.00000000      -0.00964539
