2
Properties=species:S:1:pos:R:3:forces:R:3 energy=26353.257899258697 pbc="F F F"
Kr       0.00000000       0.00000000       0.00000000       0.00000000       0.00000000 -612711.62500000
Kr       0.00000000       0.00000000       0.10000000       0.00000000       0.00000000  612711.62500000
2
Properties=species:S:1:pos:R:3:forces:R:3 energy=8025.933192227446 pbc="F F F"
Kr       0.00000000       0.00000000       0.00000000       0.00000000       0.00000000 -139444.34375000
Kr       0.00000000       0.00000000       0.15959596       0.00000000       0.00000000  139444.34375000
2
Properties=species:S:1:pos:R:3:forces:R:3 energy=3149.280604336821 pbc="F F F"
Kr       0.00000000       0.00000000       0.00000000       0.00000000       0.00000000  -45069.83203125
Kr       0.00000000       0.00000000       0.21919192       0.00000000       0.00000000   45069.83203125
2
Properties=species:S:1:pos:R:3:forces:R:3 energy=1422.6955213321762 pbc="F F F"
Kr       0.00000000       0.00000000       0.00000000       0.00000000       0.00000000  -17779.68945312
Kr       0.00000000       0.00000000       0.27878788       0.00000000       0.00000000   17779.68945312
2
Properties=species:S:1:pos:R:3:forces:R:3 energy=701.5761365697189 pbc="F F F"
Kr       0.00000000       0.00000000       0.00000000       0.00000000       0.00000000   -7927.30419922
Kr       0.00000000       0.00000000       0.33838384       0.00000000       0.00000000    7927.30419922
2
Properties=species:S:1:pos:R:3:forces:R:3 energy=367.752833359734 pbc="F F F"
Kr       0.00000000       0.00000000       0.00000000       0.00000000       0.00000000   -3829.88305664
Kr       0.00000000       0.00000000       0.39797980       0.00000000       0.00000000    3829.88305664
2
Properties=species:S:1:pos:R:3:forces:R:3 energy=202.0833234942134 pbc="F F F"
Kr       0.00000000       0.00000000       0.00000000       0.00000000       0.00000000   -1960.29895020
Kr       0.00000000       0.00000000       0.45757576       0.00000000       0.00000000    1960.29895020
2
Properties=species:S:1:pos:R:3:forces:R:3 energy=115.47482591576619 pbc="F F F"
Kr       0.00000000       0.00000000       0.00000000       0.00000000       0.00000000   -1050.32128906
Kr       0.00000000       0.00000000       0.51717172       0.00000000       0.00000000    1050.32128906
2
Properties=species:S:1:pos:R:3:forces:R:3 energy=68.22983850083313 pbc="F F F"
Kr       0.00000000       0.00000000       0.00000000       0.00000000       0.00000000    -585.09216309
Kr       0.00000000       0.00000000       0.57676768       0.00000000       0.00000000     585.09216309
2
Properties=species:S:1:pos:R:3:forces:R:3 energy=41.490226045032486 pbc="F F F"
Kr       0.00000000       0.00000000       0.00000000       0.00000000       0.00000000    -337.31103516
Kr       0.00000000       0.00000000       0.63636364       0.00000000       0.00000000     337.31103516
2
Properties=species:S:1:pos:R:3:forces:R:3 energy=25.85481402525094 pbc="F F F"
Kr       0.00000000       0.00000000       0.00000000       0.00000000       0.00000000    -200.46002197
Kr       0.00000000       0.00000000       0.69595960       0.00000000       0.00000000     200.46002197
2
Properties=species:S:1:pos:R:3:forces:R:3 energy=16.44619349501128 pbc="F F F"
Kr       0.00000000       0.00000000       0.00000000       0.00000000       0.00000000    -122.34145355
Kr       0.00000000       0.00000000       0.75555556       0.00000000       0.00000000     122.34145355
2
Properties=species:S:1:pos:R:3:forces:R:3 energy=10.640667211443587 pbc="F F F"
Kr       0.00000000       0.00000000       0.00000000       0.00000000       0.00000000     -76.43201447
Kr       0.00000000       0.00000000       0.81515152       0.00000000       0.00000000      76.43201447
2
Properties=species:S:1:pos:R:3:forces:R:3 energy=6.977648213215583 pbc="F F F"
Kr       0.00000000       0.00000000       0.00000000       0.00000000       0.00000000     -48.76623535
Kr       0.00000000       0.00000000       0.87474747       0.00000000       0.00000000      48.76623535
2
Properties=species:S:1:pos:R:3:forces:R:3 energy=4.61964885974675 pbc="F F F"
Kr       0.00000000       0.00000000       0.00000000       0.00000000       0.00000000     -31.70080185
Kr       0.00000000       0.00000000       0.93434343       0.00000000       0.00000000      31.70080185
2
Properties=species:S:1:pos:R:3:forces:R:3 energy=3.075438996666844 pbc="F F F"
Kr       0.00000000       0.00000000       0.00000000       0.00000000       0.00000000     -20.92267418
Kr       0.00000000       0.00000000       0.99393939       0.00000000       0.00000000      20.92267418
2
Properties=species:S:1:pos:R:3:forces:R:3 energy=2.050627322181208 pbc="F F F"
Kr       0.00000000       0.00000000       0.00000000       0.00000000       0.00000000     -13.96410179
Kr       0.00000000       0.00000000       1.05353535       0.00000000       0.00000000      13.96410179
2
Properties=species:S:1:pos:R:3:forces:R:3 energy=1.363695775446563 pbc="F F F"
Kr       0.00000000       0.00000000       0.00000000       0.00000000       0.00000000      -9.40769958
Kr       0.00000000       0.00000000       1.11313131       0.00000000       0.00000000       9.40769958
2
Properties=species:S:1:pos:R:3:forces:R:3 energy=0.89829391100002 pbc="F F F"
Kr       0.00000000       0.00000000       0.00000000       0.00000000       0.00000000      -6.41922760
Kr       0.00000000       0.00000000       1.17272727       0.00000000       0.00000000       6.41922760
2
Properties=species:S:1:pos:R:3:forces:R:3 energy=0.5790420044903932 pbc="F F F"
Kr       0.00000000       0.00000000       0.00000000       0.00000000       0.00000000      -4.42186403
Kr       0.00000000       0.00000000       1.23232323       0.00000000       0.00000000       4.42186403
2
Properties=species:S:1:pos:R:3:forces:R:3 energy=0.3588466586235869 pbc="F F F"
Kr       0.00000000       0.00000000       0.00000000       0.00000000       0.00000000      -3.05439305
Kr       0.00000000       0.00000000       1.29191919       0.00000000       0.00000000       3.05439305
2
Properties=species:S:1:pos:R:3:forces:R:3 energy=0.20626081198448795 pbc="F F F"
Kr       0.00000000       0.00000000       0.00000000       0.00000000       0.00000000      -2.12709999
Kr       0.00000000       0.00000000       1.35151515       0.00000000       0.00000000       2.12709999
2
Properties=species:S:1:pos:R:3:forces:R:3 energy=0.09936862526483717 pbc="F F F"
Kr       0.00000000       0.00000000       0.00000000       0.00000000       0.00000000      -1.50011957
Kr       0.00000000       0.00000000       1.41111111       0.00000000       0.00000000       1.50011957
2
Properties=species:S:1:pos:R:3:forces:R:3 energy=0.023662964906498104 pbc="F F F"
Kr       0.00000000       0.00000000       0.00000000       0.00000000       0.00000000      -1.06544864
Kr       0.00000000       0.00000000       1.47070707       0.00000000       0.00000000       1.06544864
2
Properties=species:S:1:pos:R:3:forces:R:3 energy=-0.029984824612331245 pbc="F F F"
Kr       0.00000000       0.00000000       0.00000000       0.00000000       0.00000000      -0.75065559
Kr       0.00000000       0.00000000       1.53030303       0.00000000       0.00000000       0.75065559
2
Properties=species:S:1:pos:R:3:forces:R:3 energy=-0.06735482958485137 pbc="F F F"
Kr       0.00000000       0.00000000       0.00000000       0.00000000       0.00000000      -0.51436055
Kr       0.00000000       0.00000000       1.58989899       0.00000000       0.00000000       0.51436055
2
Properties=species:S:1:pos:R:3:forces:R:3 energy=-0.09243155529989454 pbc="F F F"
Kr       0.00000000       0.00000000       0.00000000       0.00000000       0.00000000      -0.33572417
Kr       0.00000000       0.00000000       1.64949495       0.00000000       0.00000000       0.33572417
2
Properties=species:S:1:pos:R:3:forces:R:3 energy=-0.10829376824352177 pbc="F F F"
Kr       0.00000000       0.00000000       0.00000000       0.00000000       0.00000000      -0.20362343
Kr       0.00000000       0.00000000       1.70909091       0.00000000       0.00000000       0.20362343
2
Properties=species:S:1:pos:R:3:forces:R:3 energy=-0.1174502563366365 pbc="F F F"
Kr       0.00000000       0.00000000       0.00000000       0.00000000       0.00000000      -0.10914990
Kr       0.00000000       0.00000000       1.76868687       0.00000000       0.00000000       0.10914990
2
Properties=species:S:1:pos:R:3:forces:R:3 energy=-0.12185636529512477 pbc="F F F"
Kr       0.00000000       0.00000000       0.00000000       0.00000000       0.00000000      -0.04250624
Kr       0.00000000       0.00000000       1.82828283       0.00000000       0.00000000       0.04250624
2
Properties=species:S:1:pos:R:3:forces:R:3 energy=-0.12287779179898961 pbc="F F F"
Kr       0.00000000       0.00000000       0.00000000       0.00000000       0.00000000       0.00585632
Kr       0.00000000       0.00000000       1.88787879       0.00000000       0.00000000      -0.00585632
2
Properties=species:S:1:pos:R:3:forces:R:3 energy=-0.1213871070559072 pbc="F F F"
Kr       0.00000000       0.00000000       0.00000000       0.00000000       0.00000000       0.04255934
Kr       0.00000000       0.00000000       1.94747475       0.00000000       0.00000000      -0.04255934
2
Properties=species:S:1:pos:R:3:forces:R:3 energy=-0.11798233542214842 pbc="F F F"
Kr       0.00000000       0.00000000       0.00000000       0.00000000       0.00000000       0.07024760
Kr       0.00000000       0.00000000       2.00707071       0.00000000       0.00000000      -0.07024760
2
Properties=species:S:1:pos:R:3:forces:R:3 energy=-0.11319058211510165 pbc="F F F"
Kr       0.00000000       0.00000000       0.00000000       0.00000000       0.00000000       0.08905236
Kr       0.00000000       0.00000000       2.06666667       0.00000000       0.00000000      -0.08905236
2
Properties=species:S:1:pos:R:3:forces:R:3 energy=-0.10754511580519222 pbc="F F F"
Kr       0.00000000       0.00000000       0.00000000       0.00000000       0.00000000       0.09899013
Kr       0.00000000       0.00000000       2.12626263       0.00000000       0.00000000      -0.09899013
2
Properties=species:S:1:pos:R:3:forces:R:3 energy=-0.10154383385892722 pbc="F F F"
Kr       0.00000000       0.00000000       0.00000000       0.00000000       0.00000000       0.10131082
Kr       0.00000000       0.00000000       2.18585859       0.00000000       0.00000000      -0.10131082
2
Properties=species:S:1:pos:R:3:forces:R:3 energy=-0.09557600916841603 pbc="F F F"
Kr       0.00000000       0.00000000       0.00000000       0.00000000       0.00000000       0.09828196
Kr       0.00000000       0.00000000       2.24545455       0.00000000       0.00000000      -0.09828196
2
Properties=species:S:1:pos:R:3:forces:R:3 energy=-0.08988931611152101 pbc="F F F"
Kr       0.00000000       0.00000000       0.00000000       0.00000000       0.00000000       0.09221280
Kr       0.00000000       0.00000000       2.30505051       0.00000000       0.00000000      -0.09221280
2
Properties=species:S:1:pos:R:3:forces:R:3 energy=-0.08461266863427283 pbc="F F F"
Kr       0.00000000       0.00000000       0.00000000       0.00000000       0.00000000       0.08472317
Kr       0.00000000       0.00000000       2.36464646       0.00000000       0.00000000      -0.08472317
2
Properties=species:S:1:pos:R:3:forces:R:3 energy=-0.07980480120418464 pbc="F F F"
Kr       0.00000000       0.00000000       0.00000000       0.00000000       0.00000000       0.07651140
Kr       0.00000000       0.00000000       2.42424242       0.00000000       0.00000000      -0.07651140
2
Properties=species:S:1:pos:R:3:forces:R:3 energy=-0.07550947426766633 pbc="F F F"
Kr       0.00000000       0.00000000       0.00000000       0.00000000       0.00000000       0.06746338
Kr       0.00000000       0.00000000       2.48383838       0.00000000       0.00000000      -0.06746338
2
Properties=species:S:1:pos:R:3:forces:R:3 energy=-0.07178996298760768 pbc="F F F"
Kr       0.00000000       0.00000000       0.00000000       0.00000000       0.00000000       0.05709529
Kr       0.00000000       0.00000000       2.54343434       0.00000000       0.00000000      -0.05709529
2
Properties=species:S:1:pos:R:3:forces:R:3 energy=-0.06873947074819353 pbc="F F F"
Kr       0.00000000       0.00000000       0.00000000       0.00000000       0.00000000       0.04496632
Kr       0.00000000       0.00000000       2.60303030       0.00000000       0.00000000      -0.04496632
2
Properties=species:S:1:pos:R:3:forces:R:3 energy=-0.06646541159766646 pbc="F F F"
Kr       0.00000000       0.00000000       0.00000000       0.00000000       0.00000000       0.03109810
Kr       0.00000000       0.00000000       2.66262626       0.00000000       0.00000000      -0.03109810
2
Properties=species:S:1:pos:R:3:forces:R:3 energy=-0.06505314791858793 pbc="F F F"
Kr       0.00000000       0.00000000       0.00000000       0.00000000       0.00000000       0.01622922
Kr       0.00000000       0.00000000       2.72222222       0.00000000       0.00000000      -0.01622922
2
Properties=species:S:1:pos:R:3:forces:R:3 energy=-0.06452418876841262 pbc="F F F"
Kr       0.00000000       0.00000000       0.00000000       0.00000000       0.00000000       0.00171089
Kr       0.00000000       0.00000000       2.78181818       0.00000000       0.00000000      -0.00171089
2
Properties=species:S:1:pos:R:3:forces:R:3 energy=-0.06481197141328449 pbc="F F F"
Kr       0.00000000       0.00000000       0.00000000       0.00000000       0.00000000      -0.01094493
Kr       0.00000000       0.00000000       2.84141414       0.00000000       0.00000000       0.01094493
2
Properties=species:S:1:pos:R:3:forces:R:3 energy=-0.06576829510787696 pbc="F F F"
Kr       0.00000000       0.00000000       0.00000000       0.00000000       0.00000000      -0.02058257
Kr       0.00000000       0.00000000       2.90101010       0.00000000       0.00000000       0.02058257
2
Properties=species:S:1:pos:R:3:forces:R:3 energy=-0.06719462379832923 pbc="F F F"
Kr       0.00000000       0.00000000       0.00000000       0.00000000       0.00000000      -0.02668626
Kr       0.00000000       0.00000000       2.96060606       0.00000000       0.00000000       0.02668626
2
Properties=species:S:1:pos:R:3:forces:R:3 energy=-0.06888059280216481 pbc="F F F"
Kr       0.00000000       0.00000000       0.00000000       0.00000000       0.00000000      -0.02935525
Kr       0.00000000       0.00000000       3.02020202       0.00000000       0.00000000       0.02935525
2
Properties=species:S:1:pos:R:3:forces:R:3 energy=-0.07063559648268186 pbc="F F F"
Kr       0.00000000       0.00000000       0.00000000       0.00000000       0.00000000      -0.02911608
Kr       0.00000000       0.00000000       3.07979798       0.00000000       0.00000000       0.02911608
2
Properties=species:S:1:pos:R:3:forces:R:3 energy=-0.07230811798387138 pbc="F F F"
Kr       0.00000000       0.00000000       0.00000000       0.00000000       0.00000000      -0.02672164
Kr       0.00000000       0.00000000       3.13939394       0.00000000       0.00000000       0.02672164
2
Properties=species:S:1:pos:R:3:forces:R:3 energy=-0.07379425187167192 pbc="F F F"
Kr       0.00000000       0.00000000       0.00000000       0.00000000       0.00000000      -0.02299934
Kr       0.00000000       0.00000000       3.19898990       0.00000000       0.00000000       0.02299934
2
Properties=species:S:1:pos:R:3:forces:R:3 energy=-0.07503890537635796 pbc="F F F"
Kr       0.00000000       0.00000000       0.00000000       0.00000000       0.00000000      -0.01874144
Kr       0.00000000       0.00000000       3.25858586       0.00000000       0.00000000       0.01874144
2
Properties=species:S:1:pos:R:3:forces:R:3 energy=-0.0760309205186294 pbc="F F F"
Kr       0.00000000       0.00000000       0.00000000       0.00000000       0.00000000      -0.01461856
Kr       0.00000000       0.00000000       3.31818182       0.00000000       0.00000000       0.01461856
2
Properties=species:S:1:pos:R:3:forces:R:3 energy=-0.07679377924483684 pbc="F F F"
Kr       0.00000000       0.00000000       0.00000000       0.00000000       0.00000000      -0.01111466
Kr       0.00000000       0.00000000       3.37777778       0.00000000       0.00000000       0.01111466
2
Properties=species:S:1:pos:R:3:forces:R:3 energy=-0.07737327729084002 pbc="F F F"
Kr       0.00000000       0.00000000       0.00000000       0.00000000       0.00000000      -0.00849010
Kr       0.00000000       0.00000000       3.43737374       0.00000000       0.00000000       0.00849010
2
Properties=species:S:1:pos:R:3:forces:R:3 energy=-0.0778240323839766 pbc="F F F"
Kr       0.00000000       0.00000000       0.00000000       0.00000000       0.00000000      -0.00678093
Kr       0.00000000       0.00000000       3.49696970       0.00000000       0.00000000       0.00678093
2
Properties=species:S:1:pos:R:3:forces:R:3 energy=-0.07819680215145644 pbc="F F F"
Kr       0.00000000       0.00000000       0.00000000       0.00000000       0.00000000      -0.00583686
Kr       0.00000000       0.00000000       3.55656566       0.00000000       0.00000000       0.00583686
2
Properties=species:S:1:pos:R:3:forces:R:3 energy=-0.07852961250524859 pbc="F F F"
Kr       0.00000000       0.00000000       0.00000000       0.00000000       0.00000000      -0.00538804
Kr       0.00000000       0.00000000       3.61616162       0.00000000       0.00000000       0.00538804
2
Properties=species:S:1:pos:R:3:forces:R:3 energy=-0.07884265135751065 pbc="F F F"
Kr       0.00000000       0.00000000       0.00000000       0.00000000       0.00000000      -0.00512434
Kr       0.00000000       0.00000000       3.67575758       0.00000000       0.00000000       0.00512434
2
Properties=species:S:1:pos:R:3:forces:R:3 energy=-0.07913847078619976 pbc="F F F"
Kr       0.00000000       0.00000000       0.00000000       0.00000000       0.00000000      -0.00476798
Kr       0.00000000       0.00000000       3.73535354       0.00000000       0.00000000       0.00476798
2
Properties=species:S:1:pos:R:3:forces:R:3 energy=-0.0794051740696546 pbc="F F F"
Kr       0.00000000       0.00000000       0.00000000       0.00000000       0.00000000      -0.00412279
Kr       0.00000000       0.00000000       3.79494949       0.00000000       0.00000000       0.00412279
2
Properties=species:S:1:pos:R:3:forces:R:3 energy=-0.07962219385082052 pbc="F F F"
Kr       0.00000000       0.00000000       0.00000000       0.00000000       0.00000000      -0.00309386
Kr       0.00000000       0.00000000       3.85454545       0.00000000       0.00000000       0.00309386
2
Properties=species:S:1:pos:R:3:forces:R:3 energy=-0.07976624556710547 pbc="F F F"
Kr       0.00000000       0.00000000       0.00000000       0.00000000       0.00000000      -0.00168036
Kr       0.00000000       0.00000000       3.91414141       0.00000000       0.00000000       0.00168036
2
Properties=species:S:1:pos:R:3:forces:R:3 energy=-0.0798161622667035 pbc="F F F"
Kr       0.00000000       0.00000000       0.00000000       0.00000000       0.00000000       0.00004978
Kr       0.00000000       0.00000000       3.97373737       0.00000000       0.00000000      -0.00004978
2
Properties=species:S:1:pos:R:3:forces:R:3 energy=-0.07975612030300391 pbc="F F F"
Kr       0.00000000       0.00000000       0.00000000       0.00000000       0.00000000       0.00199034
Kr       0.00000000       0.00000000       4.03333333       0.00000000       0.00000000      -0.00199034
2
Properties=species:S:1:pos:R:3:forces:R:3 energy=-0.07957706439535543 pbc="F F F"
Kr       0.00000000       0.00000000       0.00000000       0.00000000       0.00000000       0.00402512
Kr       0.00000000       0.00000000       4.09292929       0.00000000       0.00000000      -0.00402512
2
Properties=species:S:1:pos:R:3:forces:R:3 energy=-0.0792766645714791 pbc="F F F"
Kr       0.00000000       0.00000000       0.00000000       0.00000000       0.00000000       0.00604572
Kr       0.00000000       0.00000000       4.15252525       0.00000000       0.00000000      -0.00604572
2
Properties=species:S:1:pos:R:3:forces:R:3 energy=-0.07885859762890757 pbc="F F F"
Kr       0.00000000       0.00000000       0.00000000       0.00000000       0.00000000       0.00795883
Kr       0.00000000       0.00000000       4.21212121       0.00000000       0.00000000      -0.00795883
2
Properties=species:S:1:pos:R:3:forces:R:3 energy=-0.07833177359751892 pbc="F F F"
Kr       0.00000000       0.00000000       0.00000000       0.00000000       0.00000000       0.00968382
Kr       0.00000000       0.00000000       4.27171717       0.00000000       0.00000000      -0.00968382
2
Properties=species:S:1:pos:R:3:forces:R:3 energy=-0.07770963189415753 pbc="F F F"
Kr       0.00000000       0.00000000       0.00000000       0.00000000       0.00000000       0.01114400
Kr       0.00000000       0.00000000       4.33131313       0.00000000       0.00000000      -0.01114400
2
Properties=species:S:1:pos:R:3:forces:R:3 energy=-0.07701034741703022 pbc="F F F"
Kr       0.00000000       0.00000000       0.00000000       0.00000000       0.00000000       0.01225903
Kr       0.00000000       0.00000000       4.39090909       0.00000000       0.00000000      -0.01225903
2
Properties=species:S:1:pos:R:3:forces:R:3 energy=-0.07625702552173205 pbc="F F F"
Kr       0.00000000       0.00000000       0.00000000       0.00000000       0.00000000       0.01294273
Kr       0.00000000       0.00000000       4.45050505       0.00000000       0.00000000      -0.01294273
2
Properties=species:S:1:pos:R:3:forces:R:3 energy=-0.07547790553179635 pbc="F F F"
Kr       0.00000000       0.00000000       0.00000000       0.00000000       0.00000000       0.01311250
Kr       0.00000000       0.00000000       4.51010101       0.00000000       0.00000000      -0.01311250
2
Properties=species:S:1:pos:R:3:forces:R:3 energy=-0.0747055305564263 pbc="F F F"
Kr       0.00000000       0.00000000       0.00000000       0.00000000       0.00000000       0.01270987
Kr       0.00000000       0.00000000       4.56969697       0.00000000       0.00000000      -0.01270987
2
Properties=species:S:1:pos:R:3:forces:R:3 energy=-0.07397456613829956 pbc="F F F"
Kr       0.00000000       0.00000000       0.00000000       0.00000000       0.00000000       0.01172677
Kr       0.00000000       0.00000000       4.62929293       0.00000000       0.00000000      -0.01172677
2
Properties=species:S:1:pos:R:3:forces:R:3 energy=-0.07331810206674491 pbc="F F F"
Kr       0.00000000       0.00000000       0.00000000       0.00000000       0.00000000       0.01022704
Kr       0.00000000       0.00000000       4.68888889       0.00000000       0.00000000      -0.01022704
2
Properties=species:S:1:pos:R:3:forces:R:3 energy=-0.07276311174435103 pbc="F F F"
Kr       0.00000000       0.00000000       0.00000000       0.00000000       0.00000000       0.00835103
Kr       0.00000000       0.00000000       4.74848485       0.00000000       0.00000000      -0.00835103
2
Properties=species:S:1:pos:R:3:forces:R:3 energy=-0.07232624862159279 pbc="F F F"
Kr       0.00000000       0.00000000       0.00000000       0.00000000       0.00000000       0.00629911
Kr       0.00000000       0.00000000       4.80808081       0.00000000       0.00000000      -0.00629911
2
Properties=species:S:1:pos:R:3:forces:R:3 energy=-0.07201132164895369 pbc="F F F"
Kr       0.00000000       0.00000000       0.00000000       0.00000000       0.00000000       0.00429627
Kr       0.00000000       0.00000000       4.86767677       0.00000000       0.00000000      -0.00429627
2
Properties=species:S:1:pos:R:3:forces:R:3 energy=-0.07180899192900424 pbc="F F F"
Kr       0.00000000       0.00000000       0.00000000       0.00000000       0.00000000       0.00255187
Kr       0.00000000       0.00000000       4.92727273       0.00000000       0.00000000      -0.00255187
2
Properties=species:S:1:pos:R:3:forces:R:3 energy=-0.07169882627380965 pbc="F F F"
Kr       0.00000000       0.00000000       0.00000000       0.00000000       0.00000000       0.00122466
Kr       0.00000000       0.00000000       4.98686869       0.00000000       0.00000000      -0.00122466
2
Properties=species:S:1:pos:R:3:forces:R:3 energy=-0.07165289040667051 pbc="F F F"
Kr       0.00000000       0.00000000       0.00000000       0.00000000       0.00000000       0.00040337
Kr       0.00000000       0.00000000       5.04646465       0.00000000       0.00000000      -0.00040337
2
Properties=species:S:1:pos:R:3:forces:R:3 energy=-0.07164034993012897 pbc="F F F"
Kr       0.00000000       0.00000000       0.00000000       0.00000000       0.00000000       0.00010166
Kr       0.00000000       0.00000000       5.10606061       0.00000000       0.00000000      -0.00010166
2
Properties=species:S:1:pos:R:3:forces:R:3 energy=-0.07163152823555072 pbc="F F F"
Kr       0.00000000       0.00000000       0.00000000       0.00000000       0.00000000       0.00026644
Kr       0.00000000       0.00000000       5.16565657       0.00000000       0.00000000      -0.00026644
2
Properties=species:S:1:pos:R:3:forces:R:3 energy=-0.07160145384444186 pbc="F F F"
Kr       0.00000000       0.00000000       0.00000000       0.00000000       0.00000000       0.00079184
Kr       0.00000000       0.00000000       5.22525253       0.00000000       0.00000000      -0.00079184
2
Properties=species:S:1:pos:R:3:forces:R:3 energy=-0.0715326909101171 pbc="F F F"
Kr       0.00000000       0.00000000       0.00000000       0.00000000       0.00000000       0.00153983
Kr       0.00000000       0.00000000       5.28484848       0.00000000       0.00000000      -0.00153983
2
Properties=species:S:1:pos:R:3:forces:R:3 energy=-0.07141645083413008 pbc="F F F"
Kr       0.00000000       0.00000000       0.00000000       0.00000000       0.00000000       0.00236169
Kr       0.00000000       0.00000000       5.34444444       0.00000000       0.00000000      -0.00236169
2
Properties=species:S:1:pos:R:3:forces:R:3 energy=-0.07125249771159511 pbc="F F F"
Kr       0.00000000       0.00000000       0.00000000       0.00000000       0.00000000       0.00311986
Kr       0.00000000       0.00000000       5.40404040       0.00000000       0.00000000      -0.00311986
2
Properties=species:S:1:pos:R:3:forces:R:3 energy=-0.0710480101222611 pbc="F F F"
Kr       0.00000000       0.00000000       0.00000000       0.00000000       0.00000000       0.00370756
Kr       0.00000000       0.00000000       5.46363636       0.00000000       0.00000000      -0.00370756
2
Properties=species:S:1:pos:R:3:forces:R:3 energy=-0.07081529538617919 pbc="F F F"
Kr       0.00000000       0.00000000       0.00000000       0.00000000       0.00000000       0.00406038
Kr       0.00000000       0.00000000       5.52323232       0.00000000       0.00000000      -0.00406038
2
Properties=species:S:1:pos:R:3:forces:R:3 energy=-0.07056904116441515 pbc="F F F"
Kr       0.00000000       0.00000000       0.00000000       0.00000000       0.00000000       0.00416297
Kr       0.00000000       0.00000000       5.58282828       0.00000000       0.00000000      -0.00416297
2
Properties=species:S:1:pos:R:3:forces:R:3 energy=-0.07032358768159831 pbc="F F F"
Kr       0.00000000       0.00000000       0.00000000       0.00000000       0.00000000       0.00404114
Kr       0.00000000       0.00000000       5.64242424       0.00000000       0.00000000      -0.00404114
2
Properties=species:S:1:pos:R:3:forces:R:3 energy=-0.07009066955403924 pbc="F F F"
Kr       0.00000000       0.00000000       0.00000000       0.00000000       0.00000000       0.00375211
Kr       0.00000000       0.00000000       5.70202020       0.00000000       0.00000000      -0.00375211
2
Properties=species:S:1:pos:R:3:forces:R:3 energy=-0.06987828580233736 pbc="F F F"
Kr       0.00000000       0.00000000       0.00000000       0.00000000       0.00000000       0.00336742
Kr       0.00000000       0.00000000       5.76161616       0.00000000       0.00000000      -0.00336742
2
Properties=species:S:1:pos:R:3:forces:R:3 energy=-0.06968977848024559 pbc="F F F"
Kr       0.00000000       0.00000000       0.00000000       0.00000000       0.00000000       0.00295926
Kr       0.00000000       0.00000000       5.82121212       0.00000000       0.00000000      -0.00295926
2
Properties=species:S:1:pos:R:3:forces:R:3 energy=-0.06952488347752023 pbc="F F F"
Kr       0.00000000       0.00000000       0.00000000       0.00000000       0.00000000       0.00258660
Kr       0.00000000       0.00000000       5.88080808       0.00000000       0.00000000      -0.00258660
2
Properties=species:S:1:pos:R:3:forces:R:3 energy=-0.06937991512752797 pbc="F F F"
Kr       0.00000000       0.00000000       0.00000000       0.00000000       0.00000000       0.00229097
Kr       0.00000000       0.00000000       5.94040404       0.00000000       0.00000000      -0.00229097
2
Properties=species:S:1:pos:R:3:forces:R:3 energy=-0.06924976731860122 pbc="F F F"
Kr       0.00000000       0.00000000       0.00000000       0.00000000       0.00000000       0.00209550
Kr       0.00000000       0.00000000       6.00000000       0.00000000       0.00000000      -0.00209550
