2
Properties=species:S:1:pos:R:3:forces:R:3 energy=396.0088349419598 pbc="F F F"
Li       0.00000000       0.00000000       0.00000000       0.00000000       0.00000000   -7011.50781250
Li       0.00000000       0.00000000       0.10000000       0.00000000       0.00000000    7011.50781250
2
Properties=species:S:1:pos:R:3:forces:R:3 energy=161.8008576470379 pbc="F F F"
Li       0.00000000       0.00000000       0.00000000       0.00000000       0.00000000   -2102.00341797
Li       0.00000000       0.00000000       0.15959596       0.00000000       0.00000000    2102.00341797
2
Properties=species:S:1:pos:R:3:forces:R:3 energy=80.65800486383478 pbc="F F F"
Li       0.00000000       0.00000000       0.00000000       0.00000000       0.00000000    -852.59375000
Li       0.00000000       0.00000000       0.21919192       0.00000000       0.00000000     852.59375000
2
Properties=species:S:1:pos:R:3:forces:R:3 energy=45.19161616144219 pbc="F F F"
Li       0.00000000       0.00000000       0.00000000       0.00000000       0.00000000    -404.78726196
Li       0.00000000       0.00000000       0.27878788       0.00000000       0.00000000     404.78726196
2
Properties=species:S:1:pos:R:3:forces:R:3 energy=27.52959833917657 pbc="F F F"
Li       0.00000000       0.00000000       0.00000000       0.00000000       0.00000000    -212.51052856
Li       0.00000000       0.00000000       0.33838384       0.00000000       0.00000000     212.51052856
2
Properties=species:S:1:pos:R:3:forces:R:3 energy=17.945644484922518 pbc="F F F"
Li       0.00000000       0.00000000       0.00000000       0.00000000       0.00000000    -119.49845886
Li       0.00000000       0.00000000       0.39797980       0.00000000       0.00000000     119.49845886
2
Properties=species:S:1:pos:R:3:forces:R:3 energy=12.434442632737653 pbc="F F F"
Li       0.00000000       0.00000000       0.00000000       0.00000000       0.00000000     -70.33483124
Li       0.00000000       0.00000000       0.45757576       0.00000000       0.00000000      70.33483124
2
Properties=species:S:1:pos:R:3:forces:R:3 energy=9.141651280415704 pbc="F F F"
Li       0.00000000       0.00000000       0.00000000       0.00000000       0.00000000     -42.72970581
Li       0.00000000       0.00000000       0.51717172       0.00000000       0.00000000      42.72970581
2
Properties=species:S:1:pos:R:3:forces:R:3 energy=7.106145055700249 pbc="F F F"
Li       0.00000000       0.00000000       0.00000000       0.00000000       0.00000000     -27.13420677
Li       0.00000000       0.00000000       0.57676768       0.00000000       0.00000000      27.13420677
2
Properties=species:S:1:pos:R:3:forces:R:3 energy=5.753183553491946 pbc="F F F"
Li       0.00000000       0.00000000       0.00000000       0.00000000       0.00000000     -19.36413765
Li       0.00000000       0.00000000       0.63636364       0.00000000       0.00000000      19.36413765
2
Properties=species:S:1:pos:R:3:forces:R:3 energy=4.688991321773926 pbc="F F F"
Li       0.00000000       0.00000000       0.00000000       0.00000000       0.00000000     -17.05735016
Li       0.00000000       0.00000000       0.69595960       0.00000000       0.00000000      17.05735016
2
Properties=species:S:1:pos:R:3:forces:R:3 energy=3.672213189309299 pbc="F F F"
Li       0.00000000       0.00000000       0.00000000       0.00000000       0.00000000     -17.08767128
Li       0.00000000       0.00000000       0.75555556       0.00000000       0.00000000      17.08767128
2
Properties=species:S:1:pos:R:3:forces:R:3 energy=2.687246818534367 pbc="F F F"
Li       0.00000000       0.00000000       0.00000000       0.00000000       0.00000000     -15.60103035
Li       0.00000000       0.00000000       0.81515152       0.00000000       0.00000000      15.60103035
2
Properties=species:S:1:pos:R:3:forces:R:3 energy=1.824499596809237 pbc="F F F"
Li       0.00000000       0.00000000       0.00000000       0.00000000       0.00000000     -13.38883591
Li       0.00000000       0.00000000       0.87474747       0.00000000       0.00000000      13.38883591
2
Properties=species:S:1:pos:R:3:forces:R:3 energy=1.1253250120191625 pbc="F F F"
Li       0.00000000       0.00000000       0.00000000       0.00000000       0.00000000      -9.51383972
Li       0.00000000       0.00000000       0.93434343       0.00000000       0.00000000       9.51383972
2
Properties=species:S:1:pos:R:3:forces:R:3 energy=0.7319313692698004 pbc="F F F"
Li       0.00000000       0.00000000       0.00000000       0.00000000       0.00000000      -3.71148896
Li       0.00000000       0.00000000       0.99393939       0.00000000       0.00000000       3.71148896
2
Properties=species:S:1:pos:R:3:forces:R:3 energy=0.6517323291243573 pbc="F F F"
Li       0.00000000       0.00000000       0.00000000       0.00000000       0.00000000       0.64563358
Li       0.00000000       0.00000000       1.05353535       0.00000000       0.00000000      -0.64563358
2
Properties=species:S:1:pos:R:3:forces:R:3 energy=0.7607632026718026 pbc="F F F"
Li       0.00000000       0.00000000       0.00000000       0.00000000       0.00000000       2.59838915
Li       0.00000000       0.00000000       1.11313131       0.00000000       0.00000000      -2.59838915
2
Properties=species:S:1:pos:R:3:forces:R:3 energy=0.9146184356045665 pbc="F F F"
Li       0.00000000       0.00000000       0.00000000       0.00000000       0.00000000       2.22237873
Li       0.00000000       0.00000000       1.17272727       0.00000000       0.00000000      -2.22237873
2
Properties=species:S:1:pos:R:3:forces:R:3 energy=0.9952137154374231 pbc="F F F"
Li       0.00000000       0.00000000       0.00000000       0.00000000       0.00000000       0.33589852
Li       0.00000000       0.00000000       1.23232323       0.00000000       0.00000000      -0.33589852
2
Properties=species:S:1:pos:R:3:forces:R:3 energy=0.9537087663263698 pbc="F F F"
Li       0.00000000       0.00000000       0.00000000       0.00000000       0.00000000      -1.59890783
Li       0.00000000       0.00000000       1.29191919       0.00000000       0.00000000       1.59890783
2
Properties=species:S:1:pos:R:3:forces:R:3 energy=0.8276647860697129 pbc="F F F"
Li       0.00000000       0.00000000       0.00000000       0.00000000       0.00000000      -2.44876814
Li       0.00000000       0.00000000       1.35151515       0.00000000       0.00000000       2.44876814
2
Properties=species:S:1:pos:R:3:forces:R:3 energy=0.6755439514578969 pbc="F F F"
Li       0.00000000       0.00000000       0.00000000       0.00000000       0.00000000      -2.60388255
Li       0.00000000       0.00000000       1.41111111       0.00000000       0.00000000       2.60388255
2
Properties=species:S:1:pos:R:3:forces:R:3 energy=0.5191764537204833 pbc="F F F"
Li       0.00000000       0.00000000       0.00000000       0.00000000       0.00000000      -2.64961553
Li       0.00000000       0.00000000       1.47070707       0.00000000       0.00000000       2.64961553
2
Properties=species:S:1:pos:R:3:forces:R:3 energy=0.3583378276849332 pbc="F F F"
Li       0.00000000       0.00000000       0.00000000       0.00000000       0.00000000      -2.75860500
Li       0.00000000       0.00000000       1.53030303       0.00000000       0.00000000       2.75860500
2
Properties=species:S:1:pos:R:3:forces:R:3 energy=0.1898201119396752 pbc="F F F"
Li       0.00000000       0.00000000       0.00000000       0.00000000       0.00000000      -2.89500070
Li       0.00000000       0.00000000       1.58989899       0.00000000       0.00000000       2.89500070
2
Properties=species:S:1:pos:R:3:forces:R:3 energy=0.014100727186088725 pbc="F F F"
Li       0.00000000       0.00000000       0.00000000       0.00000000       0.00000000      -2.99122310
Li       0.00000000       0.00000000       1.64949495       0.00000000       0.00000000       2.99122310
2
Properties=species:S:1:pos:R:3:forces:R:3 energy=-0.16513902275328052 pbc="F F F"
Li       0.00000000       0.00000000       0.00000000       0.00000000       0.00000000      -3.00916386
Li       0.00000000       0.00000000       1.70909091       0.00000000       0.00000000       3.00916386
2
Properties=species:S:1:pos:R:3:forces:R:3 energy=-0.3427642365768164 pbc="F F F"
Li       0.00000000       0.00000000       0.00000000       0.00000000       0.00000000      -2.93708253
Li       0.00000000       0.00000000       1.76868687       0.00000000       0.00000000       2.93708253
2
Properties=species:S:1:pos:R:3:forces:R:3 energy=-0.5136126823773741 pbc="F F F"
Li       0.00000000       0.00000000       0.00000000       0.00000000       0.00000000      -2.78463912
Li       0.00000000       0.00000000       1.82828283       0.00000000       0.00000000       2.78463912
2
Properties=species:S:1:pos:R:3:forces:R:3 energy=-0.6734416522705812 pbc="F F F"
Li       0.00000000       0.00000000       0.00000000       0.00000000       0.00000000      -2.56999516
Li       0.00000000       0.00000000       1.88787879       0.00000000       0.00000000       2.56999516
2
Properties=species:S:1:pos:R:3:forces:R:3 energy=-0.8189366472499523 pbc="F F F"
Li       0.00000000       0.00000000       0.00000000       0.00000000       0.00000000      -2.30485559
Li       0.00000000       0.00000000       1.94747475       0.00000000       0.00000000       2.30485559
2
Properties=species:S:1:pos:R:3:forces:R:3 energy=-0.9472971001470998 pbc="F F F"
Li       0.00000000       0.00000000       0.00000000       0.00000000       0.00000000      -1.99659622
Li       0.00000000       0.00000000       2.00707071       0.00000000       0.00000000       1.99659622
2
Properties=species:S:1:pos:R:3:forces:R:3 energy=-1.0564047355785335 pbc="F F F"
Li       0.00000000       0.00000000       0.00000000       0.00000000       0.00000000      -1.66335392
Li       0.00000000       0.00000000       2.06666667       0.00000000       0.00000000       1.66335392
2
Properties=species:S:1:pos:R:3:forces:R:3 energy=-1.145755598856524 pbc="F F F"
Li       0.00000000       0.00000000       0.00000000       0.00000000       0.00000000      -1.34023345
Li       0.00000000       0.00000000       2.12626263       0.00000000       0.00000000       1.34023345
2
Properties=species:S:1:pos:R:3:forces:R:3 energy=-1.2170741949064197 pbc="F F F"
Li       0.00000000       0.00000000       0.00000000       0.00000000       0.00000000      -1.06277621
Li       0.00000000       0.00000000       2.18585859       0.00000000       0.00000000       1.06277621
2
Properties=species:S:1:pos:R:3:forces:R:3 energy=-1.273615770134148 pbc="F F F"
Li       0.00000000       0.00000000       0.00000000       0.00000000       0.00000000      -0.84412473
Li       0.00000000       0.00000000       2.24545455       0.00000000       0.00000000       0.84412473
2
Properties=species:S:1:pos:R:3:forces:R:3 energy=-1.3186208443506942 pbc="F F F"
Li       0.00000000       0.00000000       0.00000000       0.00000000       0.00000000      -0.67221332
Li       0.00000000       0.00000000       2.30505051       0.00000000       0.00000000       0.67221332
2
Properties=species:S:1:pos:R:3:forces:R:3 energy=-1.35424071125715 pbc="F F F"
Li       0.00000000       0.00000000       0.00000000       0.00000000       0.00000000      -0.52582884
Li       0.00000000       0.00000000       2.36464646       0.00000000       0.00000000       0.52582884
2
Properties=species:S:1:pos:R:3:forces:R:3 energy=-1.381491865570136 pbc="F F F"
Li       0.00000000       0.00000000       0.00000000       0.00000000       0.00000000      -0.38968018
Li       0.00000000       0.00000000       2.42424242       0.00000000       0.00000000       0.38968018
2
Properties=species:S:1:pos:R:3:forces:R:3 energy=-1.400778113455615 pbc="F F F"
Li       0.00000000       0.00000000       0.00000000       0.00000000       0.00000000      -0.25832182
Li       0.00000000       0.00000000       2.48383838       0.00000000       0.00000000       0.25832182
2
Properties=species:S:1:pos:R:3:forces:R:3 energy=-1.4123921773010641 pbc="F F F"
Li       0.00000000       0.00000000       0.00000000       0.00000000       0.00000000      -0.13259019
Li       0.00000000       0.00000000       2.54343434       0.00000000       0.00000000       0.13259019
2
Properties=species:S:1:pos:R:3:forces:R:3 energy=-1.4167446564272668 pbc="F F F"
Li       0.00000000       0.00000000       0.00000000       0.00000000       0.00000000      -0.01500108
Li       0.00000000       0.00000000       2.60303030       0.00000000       0.00000000       0.01500108
2
Properties=species:S:1:pos:R:3:forces:R:3 energy=-1.41437729869379 pbc="F F F"
Li       0.00000000       0.00000000       0.00000000       0.00000000       0.00000000       0.09271829
Li       0.00000000       0.00000000       2.66262626       0.00000000       0.00000000      -0.09271829
2
Properties=species:S:1:pos:R:3:forces:R:3 energy=-1.4059070532973963 pbc="F F F"
Li       0.00000000       0.00000000       0.00000000       0.00000000       0.00000000       0.18968295
Li       0.00000000       0.00000000       2.72222222       0.00000000       0.00000000      -0.18968295
2
Properties=species:S:1:pos:R:3:forces:R:3 energy=-1.392002531043271 pbc="F F F"
Li       0.00000000       0.00000000       0.00000000       0.00000000       0.00000000       0.27480945
Li       0.00000000       0.00000000       2.78181818       0.00000000       0.00000000      -0.27480945
2
Properties=species:S:1:pos:R:3:forces:R:3 energy=-1.373436468820176 pbc="F F F"
Li       0.00000000       0.00000000       0.00000000       0.00000000       0.00000000       0.34554613
Li       0.00000000       0.00000000       2.84141414       0.00000000       0.00000000      -0.34554613
2
Properties=species:S:1:pos:R:3:forces:R:3 energy=-1.351193858547008 pbc="F F F"
Li       0.00000000       0.00000000       0.00000000       0.00000000       0.00000000       0.39719978
Li       0.00000000       0.00000000       2.90101010       0.00000000       0.00000000      -0.39719978
2
Properties=species:S:1:pos:R:3:forces:R:3 energy=-1.326612281356174 pbc="F F F"
Li       0.00000000       0.00000000       0.00000000       0.00000000       0.00000000       0.42262667
Li       0.00000000       0.00000000       2.96060606       0.00000000       0.00000000      -0.42262667
2
Properties=species:S:1:pos:R:3:forces:R:3 energy=-1.3015412397308295 pbc="F F F"
Li       0.00000000       0.00000000       0.00000000       0.00000000       0.00000000       0.41165194
Li       0.00000000       0.00000000       3.02020202       0.00000000       0.00000000      -0.41165194
2
Properties=species:S:1:pos:R:3:forces:R:3 energy=-1.278491944919302 pbc="F F F"
Li       0.00000000       0.00000000       0.00000000       0.00000000       0.00000000       0.35357940
Li       0.00000000       0.00000000       3.07979798       0.00000000       0.00000000      -0.35357940
2
Properties=species:S:1:pos:R:3:forces:R:3 energy=-1.260227427353574 pbc="F F F"
Li       0.00000000       0.00000000       0.00000000       0.00000000       0.00000000       0.25558469
Li       0.00000000       0.00000000       3.13939394       0.00000000       0.00000000      -0.25558469
2
Properties=species:S:1:pos:R:3:forces:R:3 energy=-1.2477624060644332 pbc="F F F"
Li       0.00000000       0.00000000       0.00000000       0.00000000       0.00000000       0.17188165
Li       0.00000000       0.00000000       3.19898990       0.00000000       0.00000000      -0.17188165
2
Properties=species:S:1:pos:R:3:forces:R:3 energy=-1.2380313997377805 pbc="F F F"
Li       0.00000000       0.00000000       0.00000000       0.00000000       0.00000000       0.17117849
Li       0.00000000       0.00000000       3.25858586       0.00000000       0.00000000      -0.17117849
2
Properties=species:S:1:pos:R:3:forces:R:3 energy=-1.2257228587675608 pbc="F F F"
Li       0.00000000       0.00000000       0.00000000       0.00000000       0.00000000       0.25070548
Li       0.00000000       0.00000000       3.31818182       0.00000000       0.00000000      -0.25070548
2
Properties=species:S:1:pos:R:3:forces:R:3 energy=-1.2077562666381831 pbc="F F F"
Li       0.00000000       0.00000000       0.00000000       0.00000000       0.00000000       0.35093862
Li       0.00000000       0.00000000       3.37777778       0.00000000       0.00000000      -0.35093862
2
Properties=species:S:1:pos:R:3:forces:R:3 energy=-1.1843607621467493 pbc="F F F"
Li       0.00000000       0.00000000       0.00000000       0.00000000       0.00000000       0.42886248
Li       0.00000000       0.00000000       3.43737374       0.00000000       0.00000000      -0.42886248
2
Properties=species:S:1:pos:R:3:forces:R:3 energy=-1.1572934971772013 pbc="F F F"
Li       0.00000000       0.00000000       0.00000000       0.00000000       0.00000000       0.47431958
Li       0.00000000       0.00000000       3.49696970       0.00000000       0.00000000      -0.47431958
2
Properties=species:S:1:pos:R:3:forces:R:3 energy=-1.1283640006263975 pbc="F F F"
Li       0.00000000       0.00000000       0.00000000       0.00000000       0.00000000       0.49274233
Li       0.00000000       0.00000000       3.55656566       0.00000000       0.00000000      -0.49274233
2
Properties=species:S:1:pos:R:3:forces:R:3 energy=-1.0989319147548162 pbc="F F F"
Li       0.00000000       0.00000000       0.00000000       0.00000000       0.00000000       0.49253139
Li       0.00000000       0.00000000       3.61616162       0.00000000       0.00000000      -0.49253139
2
Properties=species:S:1:pos:R:3:forces:R:3 energy=-1.0698847779354401 pbc="F F F"
Li       0.00000000       0.00000000       0.00000000       0.00000000       0.00000000       0.48086235
Li       0.00000000       0.00000000       3.67575758       0.00000000       0.00000000      -0.48086235
2
Properties=species:S:1:pos:R:3:forces:R:3 energy=-1.0417385547557065 pbc="F F F"
Li       0.00000000       0.00000000       0.00000000       0.00000000       0.00000000       0.46301454
Li       0.00000000       0.00000000       3.73535354       0.00000000       0.00000000      -0.46301454
2
Properties=species:S:1:pos:R:3:forces:R:3 energy=-1.0147474478185288 pbc="F F F"
Li       0.00000000       0.00000000       0.00000000       0.00000000       0.00000000       0.44258821
Li       0.00000000       0.00000000       3.79494949       0.00000000       0.00000000      -0.44258821
2
Properties=species:S:1:pos:R:3:forces:R:3 energy=-0.988991433000264 pbc="F F F"
Li       0.00000000       0.00000000       0.00000000       0.00000000       0.00000000       0.42183539
Li       0.00000000       0.00000000       3.85454545       0.00000000       0.00000000      -0.42183539
2
Properties=species:S:1:pos:R:3:forces:R:3 energy=-0.9644495348436288 pbc="F F F"
Li       0.00000000       0.00000000       0.00000000       0.00000000       0.00000000       0.40198648
Li       0.00000000       0.00000000       3.91414141       0.00000000       0.00000000      -0.40198648
2
Properties=species:S:1:pos:R:3:forces:R:3 energy=-0.9410500595973469 pbc="F F F"
Li       0.00000000       0.00000000       0.00000000       0.00000000       0.00000000       0.38352761
Li       0.00000000       0.00000000       3.97373737       0.00000000       0.00000000      -0.38352761
2
Properties=species:S:1:pos:R:3:forces:R:3 energy=-0.9187087134403791 pbc="F F F"
Li       0.00000000       0.00000000       0.00000000       0.00000000       0.00000000       0.36644599
Li       0.00000000       0.00000000       4.03333333       0.00000000       0.00000000      -0.36644599
2
Properties=species:S:1:pos:R:3:forces:R:3 energy=-0.8973516316026796 pbc="F F F"
Li       0.00000000       0.00000000       0.00000000       0.00000000       0.00000000       0.35042107
Li       0.00000000       0.00000000       4.09292929       0.00000000       0.00000000      -0.35042107
2
Properties=species:S:1:pos:R:3:forces:R:3 energy=-0.8769294387583877 pbc="F F F"
Li       0.00000000       0.00000000       0.00000000       0.00000000       0.00000000       0.33498597
Li       0.00000000       0.00000000       4.15252525       0.00000000       0.00000000      -0.33498597
2
Properties=species:S:1:pos:R:3:forces:R:3 energy=-0.8574222524165593 pbc="F F F"
Li       0.00000000       0.00000000       0.00000000       0.00000000       0.00000000       0.31965333
Li       0.00000000       0.00000000       4.21212121       0.00000000       0.00000000      -0.31965333
2
Properties=species:S:1:pos:R:3:forces:R:3 energy=-0.8388355147719566 pbc="F F F"
Li       0.00000000       0.00000000       0.00000000       0.00000000       0.00000000       0.30401811
Li       0.00000000       0.00000000       4.27171717       0.00000000       0.00000000      -0.30401811
2
Properties=species:S:1:pos:R:3:forces:R:3 energy=-0.8211965168049027 pbc="F F F"
Li       0.00000000       0.00000000       0.00000000       0.00000000       0.00000000       0.28783986
Li       0.00000000       0.00000000       4.33131313       0.00000000       0.00000000      -0.28783986
2
Properties=species:S:1:pos:R:3:forces:R:3 energy=-0.8045393943338851 pbc="F F F"
Li       0.00000000       0.00000000       0.00000000       0.00000000       0.00000000       0.27106339
Li       0.00000000       0.00000000       4.39090909       0.00000000       0.00000000      -0.27106339
2
Properties=species:S:1:pos:R:3:forces:R:3 energy=-0.788897006280789 pbc="F F F"
Li       0.00000000       0.00000000       0.00000000       0.00000000       0.00000000       0.25382337
Li       0.00000000       0.00000000       4.45050505       0.00000000       0.00000000      -0.25382337
2
Properties=species:S:1:pos:R:3:forces:R:3 energy=-0.7742896299632757 pbc="F F F"
Li       0.00000000       0.00000000       0.00000000       0.00000000       0.00000000       0.23639774
Li       0.00000000       0.00000000       4.51010101       0.00000000       0.00000000      -0.23639774
2
Properties=species:S:1:pos:R:3:forces:R:3 energy=-0.7607168093456304 pbc="F F F"
Li       0.00000000       0.00000000       0.00000000       0.00000000       0.00000000       0.21915317
Li       0.00000000       0.00000000       4.56969697       0.00000000       0.00000000      -0.21915317
2
Properties=species:S:1:pos:R:3:forces:R:3 energy=-0.7481563907811196 pbc="F F F"
Li       0.00000000       0.00000000       0.00000000       0.00000000       0.00000000       0.20249604
Li       0.00000000       0.00000000       4.62929293       0.00000000       0.00000000      -0.20249604
2
Properties=species:S:1:pos:R:3:forces:R:3 energy=-0.7365615784577142 pbc="F F F"
Li       0.00000000       0.00000000       0.00000000       0.00000000       0.00000000       0.18681625
Li       0.00000000       0.00000000       4.68888889       0.00000000       0.00000000      -0.18681625
2
Properties=species:S:1:pos:R:3:forces:R:3 energy=-0.7258633131682458 pbc="F F F"
Li       0.00000000       0.00000000       0.00000000       0.00000000       0.00000000       0.17245123
Li       0.00000000       0.00000000       4.74848485       0.00000000       0.00000000      -0.17245123
2
Properties=species:S:1:pos:R:3:forces:R:3 energy=-0.7159757066684661 pbc="F F F"
Li       0.00000000       0.00000000       0.00000000       0.00000000       0.00000000       0.15965140
Li       0.00000000       0.00000000       4.80808081       0.00000000       0.00000000      -0.15965140
2
Properties=species:S:1:pos:R:3:forces:R:3 energy=-0.7068002869501826 pbc="F F F"
Li       0.00000000       0.00000000       0.00000000       0.00000000       0.00000000       0.14855127
Li       0.00000000       0.00000000       4.86767677       0.00000000       0.00000000      -0.14855127
2
Properties=species:S:1:pos:R:3:forces:R:3 energy=-0.6982352738071124 pbc="F F F"
Li       0.00000000       0.00000000       0.00000000       0.00000000       0.00000000       0.13915893
Li       0.00000000       0.00000000       4.92727273       0.00000000       0.00000000      -0.13915893
2
Properties=species:S:1:pos:R:3:forces:R:3 energy=-0.6901819689552198 pbc="F F F"
Li       0.00000000       0.00000000       0.00000000       0.00000000       0.00000000       0.13134950
Li       0.00000000       0.00000000       4.98686869       0.00000000       0.00000000      -0.13134950
2
Properties=species:S:1:pos:R:3:forces:R:3 energy=-0.6825534739020226 pbc="F F F"
Li       0.00000000       0.00000000       0.00000000       0.00000000       0.00000000       0.12487313
Li       0.00000000       0.00000000       5.04646465       0.00000000       0.00000000      -0.12487313
2
Properties=species:S:1:pos:R:3:forces:R:3 energy=-0.6752792610812823 pbc="F F F"
Li       0.00000000       0.00000000       0.00000000       0.00000000       0.00000000       0.11936636
Li       0.00000000       0.00000000       5.10606061       0.00000000       0.00000000      -0.11936636
2
Properties=species:S:1:pos:R:3:forces:R:3 energy=-0.6683146962610443 pbc="F F F"
Li       0.00000000       0.00000000       0.00000000       0.00000000       0.00000000       0.11438471
Li       0.00000000       0.00000000       5.16565657       0.00000000       0.00000000      -0.11438471
2
Properties=species:S:1:pos:R:3:forces:R:3 energy=-0.6616441201461849 pbc="F F F"
Li       0.00000000       0.00000000       0.00000000       0.00000000       0.00000000       0.10945357
Li       0.00000000       0.00000000       5.22525253       0.00000000       0.00000000      -0.10945357
2
Properties=species:S:1:pos:R:3:forces:R:3 energy=-0.6552770316812755 pbc="F F F"
Li       0.00000000       0.00000000       0.00000000       0.00000000       0.00000000       0.10413037
Li       0.00000000       0.00000000       5.28484848       0.00000000       0.00000000      -0.10413037
2
Properties=species:S:1:pos:R:3:forces:R:3 energy=-0.6492473414526584 pbc="F F F"
Li       0.00000000       0.00000000       0.00000000       0.00000000       0.00000000       0.09807384
Li       0.00000000       0.00000000       5.34444444       0.00000000       0.00000000      -0.09807384
2
Properties=species:S:1:pos:R:3:forces:R:3 energy=-0.6436056167489814 pbc="F F F"
Li       0.00000000       0.00000000       0.00000000       0.00000000       0.00000000       0.09109482
Li       0.00000000       0.00000000       5.40404040       0.00000000       0.00000000      -0.09109482
2
Properties=species:S:1:pos:R:3:forces:R:3 energy=-0.6384074298971254 pbc="F F F"
Li       0.00000000       0.00000000       0.00000000       0.00000000       0.00000000       0.08318222
Li       0.00000000       0.00000000       5.46363636       0.00000000       0.00000000      -0.08318222
2
Properties=species:S:1:pos:R:3:forces:R:3 energy=-0.6337075011679053 pbc="F F F"
Li       0.00000000       0.00000000       0.00000000       0.00000000       0.00000000       0.07448532
Li       0.00000000       0.00000000       5.52323232       0.00000000       0.00000000      -0.07448532
2
Properties=species:S:1:pos:R:3:forces:R:3 energy=-0.6295404329726016 pbc="F F F"
Li       0.00000000       0.00000000       0.00000000       0.00000000       0.00000000       0.06529180
Li       0.00000000       0.00000000       5.58282828       0.00000000       0.00000000      -0.06529180
2
Properties=species:S:1:pos:R:3:forces:R:3 energy=-0.6259278269903132 pbc="F F F"
Li       0.00000000       0.00000000       0.00000000       0.00000000       0.00000000       0.05596963
Li       0.00000000       0.00000000       5.64242424       0.00000000       0.00000000      -0.05596963
2
Properties=species:S:1:pos:R:3:forces:R:3 energy=-0.6228630683125113 pbc="F F F"
Li       0.00000000       0.00000000       0.00000000       0.00000000       0.00000000       0.04692363
Li       0.00000000       0.00000000       5.70202020       0.00000000       0.00000000      -0.04692363
2
Properties=species:S:1:pos:R:3:forces:R:3 energy=-0.6203217451684971 pbc="F F F"
Li       0.00000000       0.00000000       0.00000000       0.00000000       0.00000000       0.03855931
Li       0.00000000       0.00000000       5.76161616       0.00000000       0.00000000      -0.03855931
2
Properties=species:S:1:pos:R:3:forces:R:3 energy=-0.618247028364411 pbc="F F F"
Li       0.00000000       0.00000000       0.00000000       0.00000000       0.00000000       0.03125349
Li       0.00000000       0.00000000       5.82121212       0.00000000       0.00000000      -0.03125349
2
Properties=species:S:1:pos:R:3:forces:R:3 energy=-0.6165692871310479 pbc="F F F"
Li       0.00000000       0.00000000       0.00000000       0.00000000       0.00000000       0.02534972
Li       0.00000000       0.00000000       5.88080808       0.00000000       0.00000000      -0.02534972
2
Properties=species:S:1:pos:R:3:forces:R:3 energy=-0.6151912939166887 pbc="F F F"
Li       0.00000000       0.00000000       0.00000000       0.00000000       0.00000000       0.02113976
Li       0.00000000       0.00000000       5.94040404       0.00000000       0.00000000      -0.02113976
2
Properties=species:S:1:pos:R:3:forces:R:3 energy=-0.6140097834295283 pbc="F F F"
Li       0.00000000       0.00000000       0.00000000       0.00000000       0.00000000       0.01887134
Li       0.00000000       0.00000000       6.00000000       0.00000000       0.00000000      -0.01887134
