2
Properties=species:S:1:pos:R:3:forces:R:3 energy=14807.783786303648 pbc="F F F"
Mn       0.00000000       0.00000000       0.00000000       0.00000000       0.00000000 -325888.87500000
Mn       0.00000000       0.00000000       0.10000000       0.00000000       0.00000000  325888.87500000
2
Properties=species:S:1:pos:R:3:forces:R:3 energy=4863.5523409911475 pbc="F F F"
Mn       0.00000000       0.00000000       0.00000000       0.00000000       0.00000000  -77887.89062500
Mn       0.00000000       0.00000000       0.15959596       0.00000000       0.00000000   77887.89062500
2
Properties=species:S:1:pos:R:3:forces:R:3 energy=2097.7933077880225 pbc="F F F"
Mn       0.00000000       0.00000000       0.00000000       0.00000000       0.00000000  -26081.68945312
Mn       0.00000000       0.00000000       0.21919192       0.00000000       0.00000000   26081.68945312
2
Properties=species:S:1:pos:R:3:forces:R:3 energy=1085.47677946771 pbc="F F F"
Mn       0.00000000       0.00000000       0.00000000       0.00000000       0.00000000  -10608.55859375
Mn       0.00000000       0.00000000       0.27878788       0.00000000       0.00000000   10608.55859375
2
Properties=species:S:1:pos:R:3:forces:R:3 energy=649.4050631591163 pbc="F F F"
Mn       0.00000000       0.00000000       0.00000000       0.00000000       0.00000000   -4879.39306641
Mn       0.00000000       0.00000000       0.33838384       0.00000000       0.00000000    4879.39306641
2
Properties=species:S:1:pos:R:3:forces:R:3 energy=440.9751315248269 pbc="F F F"
Mn       0.00000000       0.00000000       0.00000000       0.00000000       0.00000000   -2435.97216797
Mn       0.00000000       0.00000000       0.39797980       0.00000000       0.00000000    2435.97216797
2
Properties=species:S:1:pos:R:3:forces:R:3 energy=333.8611483768657 pbc="F F F"
Mn       0.00000000       0.00000000       0.00000000       0.00000000       0.00000000   -1296.52197266
Mn       0.00000000       0.00000000       0.45757576       0.00000000       0.00000000    1296.52197266
2
Properties=species:S:1:pos:R:3:forces:R:3 energy=274.97586397204446 pbc="F F F"
Mn       0.00000000       0.00000000       0.00000000       0.00000000       0.00000000    -746.77893066
Mn       0.00000000       0.00000000       0.51717172       0.00000000       0.00000000     746.77893066
2
Properties=species:S:1:pos:R:3:forces:R:3 energy=238.86343724591018 pbc="F F F"
Mn       0.00000000       0.00000000       0.00000000       0.00000000       0.00000000    -503.41125488
Mn       0.00000000       0.00000000       0.57676768       0.00000000       0.00000000     503.41125488
2
Properties=species:S:1:pos:R:3:forces:R:3 energy=211.27354777022816 pbc="F F F"
Mn       0.00000000       0.00000000       0.00000000       0.00000000       0.00000000    -448.00335693
Mn       0.00000000       0.00000000       0.63636364       0.00000000       0.00000000     448.00335693
2
Properties=species:S:1:pos:R:3:forces:R:3 energy=182.98302050884152 pbc="F F F"
Mn       0.00000000       0.00000000       0.00000000       0.00000000       0.00000000    -517.08935547
Mn       0.00000000       0.00000000       0.69595960       0.00000000       0.00000000     517.08935547
2
Properties=species:S:1:pos:R:3:forces:R:3 energy=148.57129272394533 pbc="F F F"
Mn       0.00000000       0.00000000       0.00000000       0.00000000       0.00000000    -639.97271729
Mn       0.00000000       0.00000000       0.75555556       0.00000000       0.00000000     639.97271729
2
Properties=species:S:1:pos:R:3:forces:R:3 energy=107.28752521381935 pbc="F F F"
Mn       0.00000000       0.00000000       0.00000000       0.00000000       0.00000000    -706.29718018
Mn       0.00000000       0.00000000       0.81515152       0.00000000       0.00000000     706.29718018
2
Properties=species:S:1:pos:R:3:forces:R:3 energy=71.14371902239688 pbc="F F F"
Mn       0.00000000       0.00000000       0.00000000       0.00000000       0.00000000    -560.77081299
Mn       0.00000000       0.00000000       0.87474747       0.00000000       0.00000000     560.77081299
2
Properties=species:S:1:pos:R:3:forces:R:3 energy=39.036427233578216 pbc="F F F"
Mn       0.00000000       0.00000000       0.00000000       0.00000000       0.00000000    -473.54629517
Mn       0.00000000       0.00000000       0.93434343       0.00000000       0.00000000     473.54629517
2
Properties=species:S:1:pos:R:3:forces:R:3 energy=21.271868967322433 pbc="F F F"
Mn       0.00000000       0.00000000       0.00000000       0.00000000       0.00000000    -162.69322205
Mn       0.00000000       0.00000000       0.99393939       0.00000000       0.00000000     162.69322205
2
Properties=species:S:1:pos:R:3:forces:R:3 energy=13.522130993180756 pbc="F F F"
Mn       0.00000000       0.00000000       0.00000000       0.00000000       0.00000000    -112.60693359
Mn       0.00000000       0.00000000       1.05353535       0.00000000       0.00000000     112.60693359
2
Properties=species:S:1:pos:R:3:forces:R:3 energy=7.427311930447858 pbc="F F F"
Mn       0.00000000       0.00000000       0.00000000       0.00000000       0.00000000     -92.34382629
Mn       0.00000000       0.00000000       1.11313131       0.00000000       0.00000000      92.34382629
2
Properties=species:S:1:pos:R:3:forces:R:3 energy=2.5043595887570396 pbc="F F F"
Mn       0.00000000       0.00000000       0.00000000       0.00000000       0.00000000     -72.75491333
Mn       0.00000000       0.00000000       1.17272727       0.00000000       0.00000000      72.75491333
2
Properties=species:S:1:pos:R:3:forces:R:3 energy=-1.2820767554245154 pbc="F F F"
Mn       0.00000000       0.00000000       0.00000000       0.00000000       0.00000000     -55.15072250
Mn       0.00000000       0.00000000       1.23232323       0.00000000       0.00000000      55.15072250
2
Properties=species:S:1:pos:R:3:forces:R:3 energy=-4.176964000360775 pbc="F F F"
Mn       0.00000000       0.00000000       0.00000000       0.00000000       0.00000000     -42.71717072
Mn       0.00000000       0.00000000       1.29191919       0.00000000       0.00000000      42.71717072
2
Properties=species:S:1:pos:R:3:forces:R:3 energy=-6.423365491373229 pbc="F F F"
Mn       0.00000000       0.00000000       0.00000000       0.00000000       0.00000000     -32.83667755
Mn       0.00000000       0.00000000       1.35151515       0.00000000       0.00000000      32.83667755
2
Properties=species:S:1:pos:R:3:forces:R:3 energy=-8.103759160837514 pbc="F F F"
Mn       0.00000000       0.00000000       0.00000000       0.00000000       0.00000000     -23.75047874
Mn       0.00000000       0.00000000       1.41111111       0.00000000       0.00000000      23.75047874
2
Properties=species:S:1:pos:R:3:forces:R:3 energy=-9.289910285854857 pbc="F F F"
Mn       0.00000000       0.00000000       0.00000000       0.00000000       0.00000000     -16.35596848
Mn       0.00000000       0.00000000       1.47070707       0.00000000       0.00000000      16.35596848
2
Properties=species:S:1:pos:R:3:forces:R:3 energy=-10.079104957741963 pbc="F F F"
Mn       0.00000000       0.00000000       0.00000000       0.00000000       0.00000000     -10.29429150
Mn       0.00000000       0.00000000       1.53030303       0.00000000       0.00000000      10.29429150
2
Properties=species:S:1:pos:R:3:forces:R:3 energy=-10.538491233061531 pbc="F F F"
Mn       0.00000000       0.00000000       0.00000000       0.00000000       0.00000000      -5.33709621
Mn       0.00000000       0.00000000       1.58989899       0.00000000       0.00000000       5.33709621
2
Properties=species:S:1:pos:R:3:forces:R:3 energy=-10.743790757501555 pbc="F F F"
Mn       0.00000000       0.00000000       0.00000000       0.00000000       0.00000000      -1.80276859
Mn       0.00000000       0.00000000       1.64949495       0.00000000       0.00000000       1.80276859
2
Properties=species:S:1:pos:R:3:forces:R:3 energy=-10.782258048957347 pbc="F F F"
Mn       0.00000000       0.00000000       0.00000000       0.00000000       0.00000000       0.28682840
Mn       0.00000000       0.00000000       1.70909091       0.00000000       0.00000000      -0.28682840
2
Properties=species:S:1:pos:R:3:forces:R:3 energy=-10.733022592581143 pbc="F F F"
Mn       0.00000000       0.00000000       0.00000000       0.00000000       0.00000000       1.20291924
Mn       0.00000000       0.00000000       1.76868687       0.00000000       0.00000000      -1.20291924
2
Properties=species:S:1:pos:R:3:forces:R:3 energy=-10.65367944163102 pbc="F F F"
Mn       0.00000000       0.00000000       0.00000000       0.00000000       0.00000000       1.37382138
Mn       0.00000000       0.00000000       1.82828283       0.00000000       0.00000000      -1.37382138
2
Properties=species:S:1:pos:R:3:forces:R:3 energy=-10.575548961778255 pbc="F F F"
Mn       0.00000000       0.00000000       0.00000000       0.00000000       0.00000000       1.22323978
Mn       0.00000000       0.00000000       1.88787879       0.00000000       0.00000000      -1.22323978
2
Properties=species:S:1:pos:R:3:forces:R:3 energy=-10.508789244538882 pbc="F F F"
Mn       0.00000000       0.00000000       0.00000000       0.00000000       0.00000000       1.01973474
Mn       0.00000000       0.00000000       1.94747475       0.00000000       0.00000000      -1.01973474
2
Properties=species:S:1:pos:R:3:forces:R:3 energy=-10.4535962832011 pbc="F F F"
Mn       0.00000000       0.00000000       0.00000000       0.00000000       0.00000000       0.83206004
Mn       0.00000000       0.00000000       2.00707071       0.00000000       0.00000000      -0.83206004
2
Properties=species:S:1:pos:R:3:forces:R:3 energy=-10.41065524815737 pbc="F F F"
Mn       0.00000000       0.00000000       0.00000000       0.00000000       0.00000000       0.59071660
Mn       0.00000000       0.00000000       2.06666667       0.00000000       0.00000000      -0.59071660
2
Properties=species:S:1:pos:R:3:forces:R:3 energy=-10.38646790439348 pbc="F F F"
Mn       0.00000000       0.00000000       0.00000000       0.00000000       0.00000000       0.18576244
Mn       0.00000000       0.00000000       2.12626263       0.00000000       0.00000000      -0.18576244
2
Properties=species:S:1:pos:R:3:forces:R:3 energy=-10.393173788755464 pbc="F F F"
Mn       0.00000000       0.00000000       0.00000000       0.00000000       0.00000000      -0.45038033
Mn       0.00000000       0.00000000       2.18585859       0.00000000       0.00000000       0.45038033
2
Properties=species:S:1:pos:R:3:forces:R:3 energy=-10.44423783247651 pbc="F F F"
Mn       0.00000000       0.00000000       0.00000000       0.00000000       0.00000000      -1.28817499
Mn       0.00000000       0.00000000       2.24545455       0.00000000       0.00000000       1.28817499
2
Properties=species:S:1:pos:R:3:forces:R:3 energy=-10.547879611632 pbc="F F F"
Mn       0.00000000       0.00000000       0.00000000       0.00000000       0.00000000      -2.18155646
Mn       0.00000000       0.00000000       2.30505051       0.00000000       0.00000000       2.18155646
2
Properties=species:S:1:pos:R:3:forces:R:3 energy=-10.700808919938407 pbc="F F F"
Mn       0.00000000       0.00000000       0.00000000       0.00000000       0.00000000      -2.90147758
Mn       0.00000000       0.00000000       2.36464646       0.00000000       0.00000000       2.90147758
2
Properties=species:S:1:pos:R:3:forces:R:3 energy=-10.885901836799377 pbc="F F F"
Mn       0.00000000       0.00000000       0.00000000       0.00000000       0.00000000      -3.23291087
Mn       0.00000000       0.00000000       2.42424242       0.00000000       0.00000000       3.23291087
2
Properties=species:S:1:pos:R:3:forces:R:3 energy=-11.07660521856539 pbc="F F F"
Mn       0.00000000       0.00000000       0.00000000       0.00000000       0.00000000      -3.09050274
Mn       0.00000000       0.00000000       2.48383838       0.00000000       0.00000000       3.09050274
2
Properties=species:S:1:pos:R:3:forces:R:3 energy=-11.246532379986755 pbc="F F F"
Mn       0.00000000       0.00000000       0.00000000       0.00000000       0.00000000      -2.56267858
Mn       0.00000000       0.00000000       2.54343434       0.00000000       0.00000000       2.56267858
2
Properties=species:S:1:pos:R:3:forces:R:3 energy=-11.378187645019038 pbc="F F F"
Mn       0.00000000       0.00000000       0.00000000       0.00000000       0.00000000      -1.83807850
Mn       0.00000000       0.00000000       2.60303030       0.00000000       0.00000000       1.83807850
2
Properties=species:S:1:pos:R:3:forces:R:3 energy=-11.464641401221654 pbc="F F F"
Mn       0.00000000       0.00000000       0.00000000       0.00000000       0.00000000      -1.06148744
Mn       0.00000000       0.00000000       2.66262626       0.00000000       0.00000000       1.06148744
2
Properties=species:S:1:pos:R:3:forces:R:3 energy=-11.505574783711493 pbc="F F F"
Mn       0.00000000       0.00000000       0.00000000       0.00000000       0.00000000      -0.33318996
Mn       0.00000000       0.00000000       2.72222222       0.00000000       0.00000000       0.33318996
2
Properties=species:S:1:pos:R:3:forces:R:3 energy=-11.508653585512343 pbc="F F F"
Mn       0.00000000       0.00000000       0.00000000       0.00000000       0.00000000       0.18344712
Mn       0.00000000       0.00000000       2.78181818       0.00000000       0.00000000      -0.18344712
2
Properties=species:S:1:pos:R:3:forces:R:3 energy=-11.489305954893208 pbc="F F F"
Mn       0.00000000       0.00000000       0.00000000       0.00000000       0.00000000       0.42334527
Mn       0.00000000       0.00000000       2.84141414       0.00000000       0.00000000      -0.42334527
2
Properties=species:S:1:pos:R:3:forces:R:3 energy=-11.462281337354257 pbc="F F F"
Mn       0.00000000       0.00000000       0.00000000       0.00000000       0.00000000       0.45811322
Mn       0.00000000       0.00000000       2.90101010       0.00000000       0.00000000      -0.45811322
2
Properties=species:S:1:pos:R:3:forces:R:3 energy=-11.436744215358427 pbc="F F F"
Mn       0.00000000       0.00000000       0.00000000       0.00000000       0.00000000       0.38936710
Mn       0.00000000       0.00000000       2.96060606       0.00000000       0.00000000      -0.38936710
2
Properties=species:S:1:pos:R:3:forces:R:3 energy=-11.416275208668223 pbc="F F F"
Mn       0.00000000       0.00000000       0.00000000       0.00000000       0.00000000       0.29923311
Mn       0.00000000       0.00000000       3.02020202       0.00000000       0.00000000      -0.29923311
2
Properties=species:S:1:pos:R:3:forces:R:3 energy=-11.400476007311816 pbc="F F F"
Mn       0.00000000       0.00000000       0.00000000       0.00000000       0.00000000       0.23838192
Mn       0.00000000       0.00000000       3.07979798       0.00000000       0.00000000      -0.23838192
2
Properties=species:S:1:pos:R:3:forces:R:3 energy=-11.386869097126565 pbc="F F F"
Mn       0.00000000       0.00000000       0.00000000       0.00000000       0.00000000       0.22674617
Mn       0.00000000       0.00000000       3.13939394       0.00000000       0.00000000      -0.22674617
2
Properties=species:S:1:pos:R:3:forces:R:3 energy=-11.372522979388275 pbc="F F F"
Mn       0.00000000       0.00000000       0.00000000       0.00000000       0.00000000       0.26134729
Mn       0.00000000       0.00000000       3.19898990       0.00000000       0.00000000      -0.26134729
2
Properties=species:S:1:pos:R:3:forces:R:3 energy=-11.355102111712013 pbc="F F F"
Mn       0.00000000       0.00000000       0.00000000       0.00000000       0.00000000       0.32686573
Mn       0.00000000       0.00000000       3.25858586       0.00000000       0.00000000      -0.32686573
2
Properties=species:S:1:pos:R:3:forces:R:3 energy=-11.333318542918043 pbc="F F F"
Mn       0.00000000       0.00000000       0.00000000       0.00000000       0.00000000       0.40480489
Mn       0.00000000       0.00000000       3.31818182       0.00000000       0.00000000      -0.40480489
2
Properties=species:S:1:pos:R:3:forces:R:3 energy=-11.306925522095918 pbc="F F F"
Mn       0.00000000       0.00000000       0.00000000       0.00000000       0.00000000       0.47926039
Mn       0.00000000       0.00000000       3.37777778       0.00000000       0.00000000      -0.47926039
2
Properties=species:S:1:pos:R:3:forces:R:3 energy=-11.27648208977611 pbc="F F F"
Mn       0.00000000       0.00000000       0.00000000       0.00000000       0.00000000       0.53944921
Mn       0.00000000       0.00000000       3.43737374       0.00000000       0.00000000      -0.53944921
2
Properties=species:S:1:pos:R:3:forces:R:3 energy=-11.243020537033217 pbc="F F F"
Mn       0.00000000       0.00000000       0.00000000       0.00000000       0.00000000       0.58001077
Mn       0.00000000       0.00000000       3.49696970       0.00000000       0.00000000      -0.58001077
2
Properties=species:S:1:pos:R:3:forces:R:3 energy=-11.20775861125433 pbc="F F F"
Mn       0.00000000       0.00000000       0.00000000       0.00000000       0.00000000       0.60001743
Mn       0.00000000       0.00000000       3.55656566       0.00000000       0.00000000      -0.60001743
2
Properties=species:S:1:pos:R:3:forces:R:3 energy=-11.171873761423088 pbc="F F F"
Mn       0.00000000       0.00000000       0.00000000       0.00000000       0.00000000       0.60143095
Mn       0.00000000       0.00000000       3.61616162       0.00000000       0.00000000      -0.60143095
2
Properties=species:S:1:pos:R:3:forces:R:3 energy=-11.136377246774279 pbc="F F F"
Mn       0.00000000       0.00000000       0.00000000       0.00000000       0.00000000       0.58758175
Mn       0.00000000       0.00000000       3.67575758       0.00000000       0.00000000      -0.58758175
2
Properties=species:S:1:pos:R:3:forces:R:3 energy=-11.102069523177228 pbc="F F F"
Mn       0.00000000       0.00000000       0.00000000       0.00000000       0.00000000       0.56209576
Mn       0.00000000       0.00000000       3.73535354       0.00000000       0.00000000      -0.56209576
2
Properties=species:S:1:pos:R:3:forces:R:3 energy=-11.069543180186473 pbc="F F F"
Mn       0.00000000       0.00000000       0.00000000       0.00000000       0.00000000       0.52838105
Mn       0.00000000       0.00000000       3.79494949       0.00000000       0.00000000      -0.52838105
2
Properties=species:S:1:pos:R:3:forces:R:3 energy=-11.039192490456228 pbc="F F F"
Mn       0.00000000       0.00000000       0.00000000       0.00000000       0.00000000       0.48953661
Mn       0.00000000       0.00000000       3.85454545       0.00000000       0.00000000      -0.48953661
2
Properties=species:S:1:pos:R:3:forces:R:3 energy=-11.011239298331093 pbc="F F F"
Mn       0.00000000       0.00000000       0.00000000       0.00000000       0.00000000       0.44841906
Mn       0.00000000       0.00000000       3.91414141       0.00000000       0.00000000      -0.44841906
2
Properties=species:S:1:pos:R:3:forces:R:3 energy=-10.985737737532476 pbc="F F F"
Mn       0.00000000       0.00000000       0.00000000       0.00000000       0.00000000       0.40763950
Mn       0.00000000       0.00000000       3.97373737       0.00000000       0.00000000      -0.40763950
2
Properties=species:S:1:pos:R:3:forces:R:3 energy=-10.962600031050306 pbc="F F F"
Mn       0.00000000       0.00000000       0.00000000       0.00000000       0.00000000       0.36943257
Mn       0.00000000       0.00000000       4.03333333       0.00000000       0.00000000      -0.36943257
2
Properties=species:S:1:pos:R:3:forces:R:3 energy=-10.94162023163062 pbc="F F F"
Mn       0.00000000       0.00000000       0.00000000       0.00000000       0.00000000       0.33543423
Mn       0.00000000       0.00000000       4.09292929       0.00000000       0.00000000      -0.33543423
2
Properties=species:S:1:pos:R:3:forces:R:3 energy=-10.922517105441592 pbc="F F F"
Mn       0.00000000       0.00000000       0.00000000       0.00000000       0.00000000       0.30652794
Mn       0.00000000       0.00000000       4.15252525       0.00000000       0.00000000      -0.30652794
2
Properties=species:S:1:pos:R:3:forces:R:3 energy=-10.904980748073427 pbc="F F F"
Mn       0.00000000       0.00000000       0.00000000       0.00000000       0.00000000       0.28284022
Mn       0.00000000       0.00000000       4.21212121       0.00000000       0.00000000      -0.28284022
2
Properties=species:S:1:pos:R:3:forces:R:3 energy=-10.888710522434762 pbc="F F F"
Mn       0.00000000       0.00000000       0.00000000       0.00000000       0.00000000       0.26389861
Mn       0.00000000       0.00000000       4.27171717       0.00000000       0.00000000      -0.26389861
2
Properties=species:S:1:pos:R:3:forces:R:3 energy=-10.87344745833685 pbc="F F F"
Mn       0.00000000       0.00000000       0.00000000       0.00000000       0.00000000       0.24890026
Mn       0.00000000       0.00000000       4.33131313       0.00000000       0.00000000      -0.24890026
2
Properties=species:S:1:pos:R:3:forces:R:3 energy=-10.858982499773253 pbc="F F F"
Mn       0.00000000       0.00000000       0.00000000       0.00000000       0.00000000       0.23696481
Mn       0.00000000       0.00000000       4.39090909       0.00000000       0.00000000      -0.23696481
2
Properties=species:S:1:pos:R:3:forces:R:3 energy=-10.845158291891238 pbc="F F F"
Mn       0.00000000       0.00000000       0.00000000       0.00000000       0.00000000       0.22731274
Mn       0.00000000       0.00000000       4.45050505       0.00000000       0.00000000      -0.22731274
2
Properties=species:S:1:pos:R:3:forces:R:3 energy=-10.831856599491976 pbc="F F F"
Mn       0.00000000       0.00000000       0.00000000       0.00000000       0.00000000       0.21931356
Mn       0.00000000       0.00000000       4.51010101       0.00000000       0.00000000      -0.21931356
2
Properties=species:S:1:pos:R:3:forces:R:3 energy=-10.818995103882806 pbc="F F F"
Mn       0.00000000       0.00000000       0.00000000       0.00000000       0.00000000       0.21245977
Mn       0.00000000       0.00000000       4.56969697       0.00000000       0.00000000      -0.21245977
2
Properties=species:S:1:pos:R:3:forces:R:3 energy=-10.806518876829177 pbc="F F F"
Mn       0.00000000       0.00000000       0.00000000       0.00000000       0.00000000       0.20630005
Mn       0.00000000       0.00000000       4.62929293       0.00000000       0.00000000      -0.20630005
2
Properties=species:S:1:pos:R:3:forces:R:3 energy=-10.794400928747738 pbc="F F F"
Mn       0.00000000       0.00000000       0.00000000       0.00000000       0.00000000       0.20039779
Mn       0.00000000       0.00000000       4.68888889       0.00000000       0.00000000      -0.20039779
2
Properties=species:S:1:pos:R:3:forces:R:3 energy=-10.78263653417777 pbc="F F F"
Mn       0.00000000       0.00000000       0.00000000       0.00000000       0.00000000       0.19432147
Mn       0.00000000       0.00000000       4.74848485       0.00000000       0.00000000      -0.19432147
2
Properties=species:S:1:pos:R:3:forces:R:3 energy=-10.771250538057854 pbc="F F F"
Mn       0.00000000       0.00000000       0.00000000       0.00000000       0.00000000       0.18768285
Mn       0.00000000       0.00000000       4.80808081       0.00000000       0.00000000      -0.18768285
2
Properties=species:S:1:pos:R:3:forces:R:3 energy=-10.760283237512635 pbc="F F F"
Mn       0.00000000       0.00000000       0.00000000       0.00000000       0.00000000       0.18019137
Mn       0.00000000       0.00000000       4.86767677       0.00000000       0.00000000      -0.18019137
2
Properties=species:S:1:pos:R:3:forces:R:3 energy=-10.74979299261782 pbc="F F F"
Mn       0.00000000       0.00000000       0.00000000       0.00000000       0.00000000       0.17169285
Mn       0.00000000       0.00000000       4.92727273       0.00000000       0.00000000      -0.17169285
2
Properties=species:S:1:pos:R:3:forces:R:3 energy=-10.739839110947642 pbc="F F F"
Mn       0.00000000       0.00000000       0.00000000       0.00000000       0.00000000       0.16218203
Mn       0.00000000       0.00000000       4.98686869       0.00000000       0.00000000      -0.16218203
2
Properties=species:S:1:pos:R:3:forces:R:3 energy=-10.730479994079195 pbc="F F F"
Mn       0.00000000       0.00000000       0.00000000       0.00000000       0.00000000       0.15178676
Mn       0.00000000       0.00000000       5.04646465       0.00000000       0.00000000      -0.15178676
2
Properties=species:S:1:pos:R:3:forces:R:3 energy=-10.72176158262687 pbc="F F F"
Mn       0.00000000       0.00000000       0.00000000       0.00000000       0.00000000       0.14071243
Mn       0.00000000       0.00000000       5.10606061       0.00000000       0.00000000      -0.14071243
2
Properties=species:S:1:pos:R:3:forces:R:3 energy=-10.713716617979939 pbc="F F F"
Mn       0.00000000       0.00000000       0.00000000       0.00000000       0.00000000       0.12918514
Mn       0.00000000       0.00000000       5.16565657       0.00000000       0.00000000      -0.12918514
2
Properties=species:S:1:pos:R:3:forces:R:3 energy=-10.70636749382204 pbc="F F F"
Mn       0.00000000       0.00000000       0.00000000       0.00000000       0.00000000       0.11742248
Mn       0.00000000       0.00000000       5.22525253       0.00000000       0.00000000      -0.11742248
2
Properties=species:S:1:pos:R:3:forces:R:3 energy=-10.699721516269996 pbc="F F F"
Mn       0.00000000       0.00000000       0.00000000       0.00000000       0.00000000       0.10561826
Mn       0.00000000       0.00000000       5.28484848       0.00000000       0.00000000      -0.10561826
2
Properties=species:S:1:pos:R:3:forces:R:3 energy=-10.693775830636504 pbc="F F F"
Mn       0.00000000       0.00000000       0.00000000       0.00000000       0.00000000       0.09394398
Mn       0.00000000       0.00000000       5.34444444       0.00000000       0.00000000      -0.09394398
2
Properties=species:S:1:pos:R:3:forces:R:3 energy=-10.68851843846089 pbc="F F F"
Mn       0.00000000       0.00000000       0.00000000       0.00000000       0.00000000       0.08256407
Mn       0.00000000       0.00000000       5.40404040       0.00000000       0.00000000      -0.08256407
2
Properties=species:S:1:pos:R:3:forces:R:3 energy=-10.683925366580471 pbc="F F F"
Mn       0.00000000       0.00000000       0.00000000       0.00000000       0.00000000       0.07164201
Mn       0.00000000       0.00000000       5.46363636       0.00000000       0.00000000      -0.07164201
2
Properties=species:S:1:pos:R:3:forces:R:3 energy=-10.679967480651046 pbc="F F F"
Mn       0.00000000       0.00000000       0.00000000       0.00000000       0.00000000       0.06132671
Mn       0.00000000       0.00000000       5.52323232       0.00000000       0.00000000      -0.06132671
2
Properties=species:S:1:pos:R:3:forces:R:3 energy=-10.676601974937935 pbc="F F F"
Mn       0.00000000       0.00000000       0.00000000       0.00000000       0.00000000       0.05175060
Mn       0.00000000       0.00000000       5.58282828       0.00000000       0.00000000      -0.05175060
2
Properties=species:S:1:pos:R:3:forces:R:3 energy=-10.67378286431739 pbc="F F F"
Mn       0.00000000       0.00000000       0.00000000       0.00000000       0.00000000       0.04302876
Mn       0.00000000       0.00000000       5.64242424       0.00000000       0.00000000      -0.04302876
2
Properties=species:S:1:pos:R:3:forces:R:3 energy=-10.67145445427619 pbc="F F F"
Mn       0.00000000       0.00000000       0.00000000       0.00000000       0.00000000       0.03524481
Mn       0.00000000       0.00000000       5.70202020       0.00000000       0.00000000      -0.03524481
2
Properties=species:S:1:pos:R:3:forces:R:3 energy=-10.66956185191997 pbc="F F F"
Mn       0.00000000       0.00000000       0.00000000       0.00000000       0.00000000       0.02848337
Mn       0.00000000       0.00000000       5.76161616       0.00000000       0.00000000      -0.02848337
2
Properties=species:S:1:pos:R:3:forces:R:3 energy=-10.668037633539718 pbc="F F F"
Mn       0.00000000       0.00000000       0.00000000       0.00000000       0.00000000       0.02283403
Mn       0.00000000       0.00000000       5.82121212       0.00000000       0.00000000      -0.02283403
2
Properties=species:S:1:pos:R:3:forces:R:3 energy=-10.666816252680745 pbc="F F F"
Mn       0.00000000       0.00000000       0.00000000       0.00000000       0.00000000       0.01840053
Mn       0.00000000       0.00000000       5.88080808       0.00000000       0.00000000      -0.01840053
2
Properties=species:S:1:pos:R:3:forces:R:3 energy=-10.665817807088462 pbc="F F F"
Mn       0.00000000       0.00000000       0.00000000       0.00000000       0.00000000       0.01530843
Mn       0.00000000       0.00000000       5.94040404       0.00000000       0.00000000      -0.01530843
2
Properties=species:S:1:pos:R:3:forces:R:3 energy=-10.664961459840896 pbc="F F F"
Mn       0.00000000       0.00000000       0.00000000       0.00000000       0.00000000       0.01369574
Mn       0.00000000       0.00000000       6.00000000       0.00000000       0.00000000      -0.01369574
