2
Properties=species:S:1:pos:R:3:forces:R:3 energy=1796.9348585302578 pbc="F F F"
N        0.00000000       0.00000000       0.00000000       0.00000000       0.00000000  -33466.23046875
N        0.00000000       0.00000000       0.10000000       0.00000000       0.00000000   33466.23046875
2
Properties=species:S:1:pos:R:3:forces:R:3 energy=712.6305982763515 pbc="F F F"
N        0.00000000       0.00000000       0.00000000       0.00000000       0.00000000   -9279.62597656
N        0.00000000       0.00000000       0.15959596       0.00000000       0.00000000    9279.62597656
2
Properties=species:S:1:pos:R:3:forces:R:3 energy=366.9514295751797 pbc="F F F"
N        0.00000000       0.00000000       0.00000000       0.00000000       0.00000000   -3448.62841797
N        0.00000000       0.00000000       0.21919192       0.00000000       0.00000000    3448.62841797
2
Properties=species:S:1:pos:R:3:forces:R:3 energy=230.34008619297452 pbc="F F F"
N        0.00000000       0.00000000       0.00000000       0.00000000       0.00000000   -1446.49206543
N        0.00000000       0.00000000       0.27878788       0.00000000       0.00000000    1446.49206543
2
Properties=species:S:1:pos:R:3:forces:R:3 energy=171.74973890927112 pbc="F F F"
N        0.00000000       0.00000000       0.00000000       0.00000000       0.00000000    -643.23535156
N        0.00000000       0.00000000       0.33838384       0.00000000       0.00000000     643.23535156
2
Properties=species:S:1:pos:R:3:forces:R:3 energy=142.31266616803615 pbc="F F F"
N        0.00000000       0.00000000       0.00000000       0.00000000       0.00000000    -419.85824585
N        0.00000000       0.00000000       0.39797980       0.00000000       0.00000000     419.85824585
2
Properties=species:S:1:pos:R:3:forces:R:3 energy=116.61013628852804 pbc="F F F"
N        0.00000000       0.00000000       0.00000000       0.00000000       0.00000000    -453.05972290
N        0.00000000       0.00000000       0.45757576       0.00000000       0.00000000     453.05972290
2
Properties=species:S:1:pos:R:3:forces:R:3 energy=87.91636497928437 pbc="F F F"
N        0.00000000       0.00000000       0.00000000       0.00000000       0.00000000    -495.75723267
N        0.00000000       0.00000000       0.51717172       0.00000000       0.00000000     495.75723267
2
Properties=species:S:1:pos:R:3:forces:R:3 energy=60.18483202219801 pbc="F F F"
N        0.00000000       0.00000000       0.00000000       0.00000000       0.00000000    -424.26495361
N        0.00000000       0.00000000       0.57676768       0.00000000       0.00000000     424.26495361
2
Properties=species:S:1:pos:R:3:forces:R:3 energy=37.85805376713997 pbc="F F F"
N        0.00000000       0.00000000       0.00000000       0.00000000       0.00000000    -314.60250854
N        0.00000000       0.00000000       0.63636364       0.00000000       0.00000000     314.60250854
2
Properties=species:S:1:pos:R:3:forces:R:3 energy=22.076344349545238 pbc="F F F"
N        0.00000000       0.00000000       0.00000000       0.00000000       0.00000000    -236.86813354
N        0.00000000       0.00000000       0.69595960       0.00000000       0.00000000     236.86813354
2
Properties=species:S:1:pos:R:3:forces:R:3 energy=8.66766668279388 pbc="F F F"
N        0.00000000       0.00000000       0.00000000       0.00000000       0.00000000    -206.33618164
N        0.00000000       0.00000000       0.75555556       0.00000000       0.00000000     206.33618164
2
Properties=species:S:1:pos:R:3:forces:R:3 energy=-1.6487890553962778 pbc="F F F"
N        0.00000000       0.00000000       0.00000000       0.00000000       0.00000000    -138.67498779
N        0.00000000       0.00000000       0.81515152       0.00000000       0.00000000     138.67498779
2
Properties=species:S:1:pos:R:3:forces:R:3 energy=-8.17891049762817 pbc="F F F"
N        0.00000000       0.00000000       0.00000000       0.00000000       0.00000000     -84.23351288
N        0.00000000       0.00000000       0.87474747       0.00000000       0.00000000      84.23351288
2
Properties=species:S:1:pos:R:3:forces:R:3 energy=-12.116071714530545 pbc="F F F"
N        0.00000000       0.00000000       0.00000000       0.00000000       0.00000000     -50.60847473
N        0.00000000       0.00000000       0.93434343       0.00000000       0.00000000      50.60847473
2
Properties=species:S:1:pos:R:3:forces:R:3 energy=-14.419037152259476 pbc="F F F"
N        0.00000000       0.00000000       0.00000000       0.00000000       0.00000000     -27.84973526
N        0.00000000       0.00000000       0.99393939       0.00000000       0.00000000      27.84973526
2
Properties=species:S:1:pos:R:3:forces:R:3 energy=-15.556697825525037 pbc="F F F"
N        0.00000000       0.00000000       0.00000000       0.00000000       0.00000000     -11.30557728
N        0.00000000       0.00000000       1.05353535       0.00000000       0.00000000      11.30557728
2
Properties=species:S:1:pos:R:3:forces:R:3 energy=-15.873324281320922 pbc="F F F"
N        0.00000000       0.00000000       0.00000000       0.00000000       0.00000000      -0.08638461
N        0.00000000       0.00000000       1.11313131       0.00000000       0.00000000       0.08638461
2
Properties=species:S:1:pos:R:3:forces:R:3 energy=-15.644116240305367 pbc="F F F"
N        0.00000000       0.00000000       0.00000000       0.00000000       0.00000000       7.21656752
N        0.00000000       0.00000000       1.17272727       0.00000000       0.00000000      -7.21656752
2
Properties=species:S:1:pos:R:3:forces:R:3 energy=-15.073281873761191 pbc="F F F"
N        0.00000000       0.00000000       0.00000000       0.00000000       0.00000000      11.49528980
N        0.00000000       0.00000000       1.23232323       0.00000000       0.00000000     -11.49528980
2
Properties=species:S:1:pos:R:3:forces:R:3 energy=-14.318596867357494 pbc="F F F"
N        0.00000000       0.00000000       0.00000000       0.00000000       0.00000000      13.53171062
N        0.00000000       0.00000000       1.29191919       0.00000000       0.00000000     -13.53171062
2
Properties=species:S:1:pos:R:3:forces:R:3 energy=-13.48742001024544 pbc="F F F"
N        0.00000000       0.00000000       0.00000000       0.00000000       0.00000000      14.20209885
N        0.00000000       0.00000000       1.35151515       0.00000000       0.00000000     -14.20209885
2
Properties=species:S:1:pos:R:3:forces:R:3 energy=-12.638949672438164 pbc="F F F"
N        0.00000000       0.00000000       0.00000000       0.00000000       0.00000000      14.19639206
N        0.00000000       0.00000000       1.41111111       0.00000000       0.00000000     -14.19639206
2
Properties=species:S:1:pos:R:3:forces:R:3 energy=-11.802765303221227 pbc="F F F"
N        0.00000000       0.00000000       0.00000000       0.00000000       0.00000000      13.80513668
N        0.00000000       0.00000000       1.47070707       0.00000000       0.00000000     -13.80513668
2
Properties=species:S:1:pos:R:3:forces:R:3 energy=-11.002088734239008 pbc="F F F"
N        0.00000000       0.00000000       0.00000000       0.00000000       0.00000000      12.98228836
N        0.00000000       0.00000000       1.53030303       0.00000000       0.00000000     -12.98228836
2
Properties=species:S:1:pos:R:3:forces:R:3 energy=-10.265136213129722 pbc="F F F"
N        0.00000000       0.00000000       0.00000000       0.00000000       0.00000000      11.67959976
N        0.00000000       0.00000000       1.58989899       0.00000000       0.00000000     -11.67959976
2
Properties=species:S:1:pos:R:3:forces:R:3 energy=-9.6150421996965 pbc="F F F"
N        0.00000000       0.00000000       0.00000000       0.00000000       0.00000000      10.12780857
N        0.00000000       0.00000000       1.64949495       0.00000000       0.00000000     -10.12780857
2
Properties=species:S:1:pos:R:3:forces:R:3 energy=-9.055142948258757 pbc="F F F"
N        0.00000000       0.00000000       0.00000000       0.00000000       0.00000000       8.71283340
N        0.00000000       0.00000000       1.70909091       0.00000000       0.00000000      -8.71283340
2
Properties=species:S:1:pos:R:3:forces:R:3 energy=-8.568904864215042 pbc="F F F"
N        0.00000000       0.00000000       0.00000000       0.00000000       0.00000000       7.67197704
N        0.00000000       0.00000000       1.76868687       0.00000000       0.00000000      -7.67197704
2
Properties=species:S:1:pos:R:3:forces:R:3 energy=-8.133956745791766 pbc="F F F"
N        0.00000000       0.00000000       0.00000000       0.00000000       0.00000000       6.96506691
N        0.00000000       0.00000000       1.82828283       0.00000000       0.00000000      -6.96506691
2
Properties=species:S:1:pos:R:3:forces:R:3 energy=-7.7362822330654915 pbc="F F F"
N        0.00000000       0.00000000       0.00000000       0.00000000       0.00000000       6.38154650
N        0.00000000       0.00000000       1.88787879       0.00000000       0.00000000      -6.38154650
2
Properties=species:S:1:pos:R:3:forces:R:3 energy=-7.375112237107316 pbc="F F F"
N        0.00000000       0.00000000       0.00000000       0.00000000       0.00000000       5.71240520
N        0.00000000       0.00000000       1.94747475       0.00000000       0.00000000      -5.71240520
2
Properties=species:S:1:pos:R:3:forces:R:3 energy=-7.0590559317928765 pbc="F F F"
N        0.00000000       0.00000000       0.00000000       0.00000000       0.00000000       4.86488962
N        0.00000000       0.00000000       2.00707071       0.00000000       0.00000000      -4.86488962
2
Properties=species:S:1:pos:R:3:forces:R:3 energy=-6.7978367211339155 pbc="F F F"
N        0.00000000       0.00000000       0.00000000       0.00000000       0.00000000       3.89021134
N        0.00000000       0.00000000       2.06666667       0.00000000       0.00000000      -3.89021134
2
Properties=species:S:1:pos:R:3:forces:R:3 energy=-6.5953510415076355 pbc="F F F"
N        0.00000000       0.00000000       0.00000000       0.00000000       0.00000000       2.91608691
N        0.00000000       0.00000000       2.12626263       0.00000000       0.00000000      -2.91608691
2
Properties=species:S:1:pos:R:3:forces:R:3 energy=-6.447962187481834 pbc="F F F"
N        0.00000000       0.00000000       0.00000000       0.00000000       0.00000000       2.05566025
N        0.00000000       0.00000000       2.18585859       0.00000000       0.00000000      -2.05566025
2
Properties=species:S:1:pos:R:3:forces:R:3 energy=-6.346937977324613 pbc="F F F"
N        0.00000000       0.00000000       0.00000000       0.00000000       0.00000000       1.36433589
N        0.00000000       0.00000000       2.24545455       0.00000000       0.00000000      -1.36433589
2
Properties=species:S:1:pos:R:3:forces:R:3 energy=-6.281880863464493 pbc="F F F"
N        0.00000000       0.00000000       0.00000000       0.00000000       0.00000000       0.84638196
N        0.00000000       0.00000000       2.30505051       0.00000000       0.00000000      -0.84638196
2
Properties=species:S:1:pos:R:3:forces:R:3 energy=-6.243067504657525 pbc="F F F"
N        0.00000000       0.00000000       0.00000000       0.00000000       0.00000000       0.47865838
N        0.00000000       0.00000000       2.36464646       0.00000000       0.00000000      -0.47865838
2
Properties=species:S:1:pos:R:3:forces:R:3 energy=-6.222471204321175 pbc="F F F"
N        0.00000000       0.00000000       0.00000000       0.00000000       0.00000000       0.22966950
N        0.00000000       0.00000000       2.42424242       0.00000000       0.00000000      -0.22966950
2
Properties=species:S:1:pos:R:3:forces:R:3 energy=-6.213935842687577 pbc="F F F"
N        0.00000000       0.00000000       0.00000000       0.00000000       0.00000000       0.06928638
N        0.00000000       0.00000000       2.48383838       0.00000000       0.00000000      -0.06928638
2
Properties=species:S:1:pos:R:3:forces:R:3 energy=-6.2129602505014825 pbc="F F F"
N        0.00000000       0.00000000       0.00000000       0.00000000       0.00000000      -0.02782980
N        0.00000000       0.00000000       2.54343434       0.00000000       0.00000000       0.02782980
2
Properties=species:S:1:pos:R:3:forces:R:3 energy=-6.216395155207589 pbc="F F F"
N        0.00000000       0.00000000       0.00000000       0.00000000       0.00000000      -0.08159830
N        0.00000000       0.00000000       2.60303030       0.00000000       0.00000000       0.08159830
2
Properties=species:S:1:pos:R:3:forces:R:3 energy=-6.222123812512235 pbc="F F F"
N        0.00000000       0.00000000       0.00000000       0.00000000       0.00000000      -0.10692444
N        0.00000000       0.00000000       2.66262626       0.00000000       0.00000000       0.10692444
2
Properties=species:S:1:pos:R:3:forces:R:3 energy=-6.228787437671247 pbc="F F F"
N        0.00000000       0.00000000       0.00000000       0.00000000       0.00000000      -0.11441279
N        0.00000000       0.00000000       2.72222222       0.00000000       0.00000000       0.11441279
2
Properties=species:S:1:pos:R:3:forces:R:3 energy=-6.235550180999793 pbc="F F F"
N        0.00000000       0.00000000       0.00000000       0.00000000       0.00000000      -0.11119597
N        0.00000000       0.00000000       2.78181818       0.00000000       0.00000000       0.11119597
2
Properties=species:S:1:pos:R:3:forces:R:3 energy=-6.241918925400219 pbc="F F F"
N        0.00000000       0.00000000       0.00000000       0.00000000       0.00000000      -0.10178328
N        0.00000000       0.00000000       2.84141414       0.00000000       0.00000000       0.10178328
2
Properties=species:S:1:pos:R:3:forces:R:3 energy=-6.247613135160442 pbc="F F F"
N        0.00000000       0.00000000       0.00000000       0.00000000       0.00000000      -0.08887529
N        0.00000000       0.00000000       2.90101010       0.00000000       0.00000000       0.08887529
2
Properties=species:S:1:pos:R:3:forces:R:3 energy=-6.252475198688872 pbc="F F F"
N        0.00000000       0.00000000       0.00000000       0.00000000       0.00000000      -0.07406320
N        0.00000000       0.00000000       2.96060606       0.00000000       0.00000000       0.07406320
2
Properties=species:S:1:pos:R:3:forces:R:3 energy=-6.256423219259885 pbc="F F F"
N        0.00000000       0.00000000       0.00000000       0.00000000       0.00000000      -0.05835265
N        0.00000000       0.00000000       3.02020202       0.00000000       0.00000000       0.05835265
2
Properties=species:S:1:pos:R:3:forces:R:3 energy=-6.259427128806401 pbc="F F F"
N        0.00000000       0.00000000       0.00000000       0.00000000       0.00000000      -0.04249280
N        0.00000000       0.00000000       3.07979798       0.00000000       0.00000000       0.04249280
2
Properties=species:S:1:pos:R:3:forces:R:3 energy=-6.261497663644446 pbc="F F F"
N        0.00000000       0.00000000       0.00000000       0.00000000       0.00000000      -0.02712039
N        0.00000000       0.00000000       3.13939394       0.00000000       0.00000000       0.02712039
2
Properties=species:S:1:pos:R:3:forces:R:3 energy=-6.262680566399529 pbc="F F F"
N        0.00000000       0.00000000       0.00000000       0.00000000       0.00000000      -0.01278213
N        0.00000000       0.00000000       3.19898990       0.00000000       0.00000000       0.01278213
2
Properties=species:S:1:pos:R:3:forces:R:3 energy=-6.26305030080042 pbc="F F F"
N        0.00000000       0.00000000       0.00000000       0.00000000       0.00000000       0.00010806
N        0.00000000       0.00000000       3.25858586       0.00000000       0.00000000      -0.00010806
2
Properties=species:S:1:pos:R:3:forces:R:3 energy=-6.262701378327381 pbc="F F F"
N        0.00000000       0.00000000       0.00000000       0.00000000       0.00000000       0.01129985
N        0.00000000       0.00000000       3.31818182       0.00000000       0.00000000      -0.01129985
2
Properties=species:S:1:pos:R:3:forces:R:3 energy=-6.261738731186066 pbc="F F F"
N        0.00000000       0.00000000       0.00000000       0.00000000       0.00000000       0.02070155
N        0.00000000       0.00000000       3.37777778       0.00000000       0.00000000      -0.02070155
2
Properties=species:S:1:pos:R:3:forces:R:3 energy=-6.2602695146049685 pbc="F F F"
N        0.00000000       0.00000000       0.00000000       0.00000000       0.00000000       0.02832293
N        0.00000000       0.00000000       3.43737374       0.00000000       0.00000000      -0.02832293
2
Properties=species:S:1:pos:R:3:forces:R:3 energy=-6.258397791142639 pbc="F F F"
N        0.00000000       0.00000000       0.00000000       0.00000000       0.00000000       0.03419914
N        0.00000000       0.00000000       3.49696970       0.00000000       0.00000000      -0.03419914
2
Properties=species:S:1:pos:R:3:forces:R:3 energy=-6.256227819446548 pbc="F F F"
N        0.00000000       0.00000000       0.00000000       0.00000000       0.00000000       0.03832329
N        0.00000000       0.00000000       3.55656566       0.00000000       0.00000000      -0.03832329
2
Properties=species:S:1:pos:R:3:forces:R:3 energy=-6.253865916460252 pbc="F F F"
N        0.00000000       0.00000000       0.00000000       0.00000000       0.00000000       0.04061987
N        0.00000000       0.00000000       3.61616162       0.00000000       0.00000000      -0.04061987
2
Properties=species:S:1:pos:R:3:forces:R:3 energy=-6.251425208371957 pbc="F F F"
N        0.00000000       0.00000000       0.00000000       0.00000000       0.00000000       0.04097025
N        0.00000000       0.00000000       3.67575758       0.00000000       0.00000000      -0.04097025
2
Properties=species:S:1:pos:R:3:forces:R:3 energy=-6.2490232400930825 pbc="F F F"
N        0.00000000       0.00000000       0.00000000       0.00000000       0.00000000       0.03928406
N        0.00000000       0.00000000       3.73535354       0.00000000       0.00000000      -0.03928406
2
Properties=species:S:1:pos:R:3:forces:R:3 energy=-6.246782474666148 pbc="F F F"
N        0.00000000       0.00000000       0.00000000       0.00000000       0.00000000       0.03559235
N        0.00000000       0.00000000       3.79494949       0.00000000       0.00000000      -0.03559235
2
Properties=species:S:1:pos:R:3:forces:R:3 energy=-6.24481647924239 pbc="F F F"
N        0.00000000       0.00000000       0.00000000       0.00000000       0.00000000       0.03013367
N        0.00000000       0.00000000       3.85454545       0.00000000       0.00000000      -0.03013367
2
Properties=species:S:1:pos:R:3:forces:R:3 energy=-6.243216606507486 pbc="F F F"
N        0.00000000       0.00000000       0.00000000       0.00000000       0.00000000       0.02340280
N        0.00000000       0.00000000       3.91414141       0.00000000       0.00000000      -0.02340280
2
Properties=species:S:1:pos:R:3:forces:R:3 energy=-6.242037727976652 pbc="F F F"
N        0.00000000       0.00000000       0.00000000       0.00000000       0.00000000       0.01613100
N        0.00000000       0.00000000       3.97373737       0.00000000       0.00000000      -0.01613100
2
Properties=species:S:1:pos:R:3:forces:R:3 energy=-6.2412868263327965 pbc="F F F"
N        0.00000000       0.00000000       0.00000000       0.00000000       0.00000000       0.00919247
N        0.00000000       0.00000000       4.03333333       0.00000000       0.00000000      -0.00919247
2
Properties=species:S:1:pos:R:3:forces:R:3 energy=-6.240918263484899 pbc="F F F"
N        0.00000000       0.00000000       0.00000000       0.00000000       0.00000000       0.00344137
N        0.00000000       0.00000000       4.09292929       0.00000000       0.00000000      -0.00344137
2
Properties=species:S:1:pos:R:3:forces:R:3 energy=-6.2408400174649294 pbc="F F F"
N        0.00000000       0.00000000       0.00000000       0.00000000       0.00000000      -0.00047234
N        0.00000000       0.00000000       4.15252525       0.00000000       0.00000000       0.00047234
2
Properties=species:S:1:pos:R:3:forces:R:3 energy=-6.240932307191438 pbc="F F F"
N        0.00000000       0.00000000       0.00000000       0.00000000       0.00000000      -0.00226139
N        0.00000000       0.00000000       4.21212121       0.00000000       0.00000000       0.00226139
2
Properties=species:S:1:pos:R:3:forces:R:3 energy=-6.241070033514328 pbc="F F F"
N        0.00000000       0.00000000       0.00000000       0.00000000       0.00000000      -0.00206549
N        0.00000000       0.00000000       4.27171717       0.00000000       0.00000000       0.00206549
2
Properties=species:S:1:pos:R:3:forces:R:3 energy=-6.241149029611184 pbc="F F F"
N        0.00000000       0.00000000       0.00000000       0.00000000       0.00000000      -0.00041219
N        0.00000000       0.00000000       4.33131313       0.00000000       0.00000000       0.00041219
2
Properties=species:S:1:pos:R:3:forces:R:3 energy=-6.24110563506943 pbc="F F F"
N        0.00000000       0.00000000       0.00000000       0.00000000       0.00000000       0.00192161
N        0.00000000       0.00000000       4.39090909       0.00000000       0.00000000      -0.00192161
2
Properties=species:S:1:pos:R:3:forces:R:3 energy=-6.2409233832878845 pbc="F F F"
N        0.00000000       0.00000000       0.00000000       0.00000000       0.00000000       0.00409857
N        0.00000000       0.00000000       4.45050505       0.00000000       0.00000000      -0.00409857
2
Properties=species:S:1:pos:R:3:forces:R:3 energy=-6.240634450401203 pbc="F F F"
N        0.00000000       0.00000000       0.00000000       0.00000000       0.00000000       0.00540299
N        0.00000000       0.00000000       4.51010101       0.00000000       0.00000000      -0.00540299
2
Properties=species:S:1:pos:R:3:forces:R:3 energy=-6.240306304433413 pbc="F F F"
N        0.00000000       0.00000000       0.00000000       0.00000000       0.00000000       0.00537421
N        0.00000000       0.00000000       4.56969697       0.00000000       0.00000000      -0.00537421
2
Properties=species:S:1:pos:R:3:forces:R:3 energy=-6.240023607759656 pbc="F F F"
N        0.00000000       0.00000000       0.00000000       0.00000000       0.00000000       0.00386956
N        0.00000000       0.00000000       4.62929293       0.00000000       0.00000000      -0.00386956
2
Properties=species:S:1:pos:R:3:forces:R:3 energy=-6.239871044533849 pbc="F F F"
N        0.00000000       0.00000000       0.00000000       0.00000000       0.00000000       0.00104582
N        0.00000000       0.00000000       4.68888889       0.00000000       0.00000000      -0.00104582
2
Properties=species:S:1:pos:R:3:forces:R:3 energy=-6.239917597337777 pbc="F F F"
N        0.00000000       0.00000000       0.00000000       0.00000000       0.00000000      -0.00271633
N        0.00000000       0.00000000       4.74848485       0.00000000       0.00000000       0.00271633
2
Properties=species:S:1:pos:R:3:forces:R:3 energy=-6.2402036659451925 pbc="F F F"
N        0.00000000       0.00000000       0.00000000       0.00000000       0.00000000      -0.00691239
N        0.00000000       0.00000000       4.80808081       0.00000000       0.00000000       0.00691239
2
Properties=species:S:1:pos:R:3:forces:R:3 energy=-6.240739648491687 pbc="F F F"
N        0.00000000       0.00000000       0.00000000       0.00000000       0.00000000      -0.01101954
N        0.00000000       0.00000000       4.86767677       0.00000000       0.00000000       0.01101954
2
Properties=species:S:1:pos:R:3:forces:R:3 energy=-6.2415059359309994 pbc="F F F"
N        0.00000000       0.00000000       0.00000000       0.00000000       0.00000000      -0.01456338
N        0.00000000       0.00000000       4.92727273       0.00000000       0.00000000       0.01456338
2
Properties=species:S:1:pos:R:3:forces:R:3 energy=-6.242456726039325 pbc="F F F"
N        0.00000000       0.00000000       0.00000000       0.00000000       0.00000000      -0.01716897
N        0.00000000       0.00000000       4.98686869       0.00000000       0.00000000       0.01716897
2
Properties=species:S:1:pos:R:3:forces:R:3 energy=-6.243528610245947 pbc="F F F"
N        0.00000000       0.00000000       0.00000000       0.00000000       0.00000000      -0.01858788
N        0.00000000       0.00000000       5.04646465       0.00000000       0.00000000       0.01858788
2
Properties=species:S:1:pos:R:3:forces:R:3 energy=-6.244646765190706 pbc="F F F"
N        0.00000000       0.00000000       0.00000000       0.00000000       0.00000000      -0.01872172
N        0.00000000       0.00000000       5.10606061       0.00000000       0.00000000       0.01872172
2
Properties=species:S:1:pos:R:3:forces:R:3 energy=-6.245735447200254 pbc="F F F"
N        0.00000000       0.00000000       0.00000000       0.00000000       0.00000000      -0.01763161
N        0.00000000       0.00000000       5.16565657       0.00000000       0.00000000       0.01763161
2
Properties=species:S:1:pos:R:3:forces:R:3 energy=-6.2467280024035725 pbc="F F F"
N        0.00000000       0.00000000       0.00000000       0.00000000       0.00000000      -0.01553607
N        0.00000000       0.00000000       5.22525253       0.00000000       0.00000000       0.01553607
2
Properties=species:S:1:pos:R:3:forces:R:3 energy=-6.247574015973027 pbc="F F F"
N        0.00000000       0.00000000       0.00000000       0.00000000       0.00000000      -0.01277000
N        0.00000000       0.00000000       5.28484848       0.00000000       0.00000000       0.01277000
2
Properties=species:S:1:pos:R:3:forces:R:3 energy=-6.248244558174562 pbc="F F F"
N        0.00000000       0.00000000       0.00000000       0.00000000       0.00000000      -0.00972311
N        0.00000000       0.00000000       5.34444444       0.00000000       0.00000000       0.00972311
2
Properties=species:S:1:pos:R:3:forces:R:3 energy=-6.2487345656331605 pbc="F F F"
N        0.00000000       0.00000000       0.00000000       0.00000000       0.00000000      -0.00676439
N        0.00000000       0.00000000       5.40404040       0.00000000       0.00000000       0.00676439
2
Properties=species:S:1:pos:R:3:forces:R:3 energy=-6.249058548610479 pbc="F F F"
N        0.00000000       0.00000000       0.00000000       0.00000000       0.00000000      -0.00417951
N        0.00000000       0.00000000       5.46363636       0.00000000       0.00000000       0.00417951
2
Properties=species:S:1:pos:R:3:forces:R:3 energy=-6.249243912760278 pbc="F F F"
N        0.00000000       0.00000000       0.00000000       0.00000000       0.00000000      -0.00213973
N        0.00000000       0.00000000       5.52323232       0.00000000       0.00000000       0.00213973
2
Properties=species:S:1:pos:R:3:forces:R:3 energy=-6.249325237033031 pbc="F F F"
N        0.00000000       0.00000000       0.00000000       0.00000000       0.00000000      -0.00069465
N        0.00000000       0.00000000       5.58282828       0.00000000       0.00000000       0.00069465
2
Properties=species:S:1:pos:R:3:forces:R:3 energy=-6.249337594193913 pbc="F F F"
N        0.00000000       0.00000000       0.00000000       0.00000000       0.00000000       0.00019858
N        0.00000000       0.00000000       5.64242424       0.00000000       0.00000000      -0.00019858
2
Properties=species:S:1:pos:R:3:forces:R:3 energy=-6.249310352929693 pbc="F F F"
N        0.00000000       0.00000000       0.00000000       0.00000000       0.00000000       0.00064451
N        0.00000000       0.00000000       5.70202020       0.00000000       0.00000000      -0.00064451
2
Properties=species:S:1:pos:R:3:forces:R:3 energy=-6.249267175720352 pbc="F F F"
N        0.00000000       0.00000000       0.00000000       0.00000000       0.00000000       0.00077175
N        0.00000000       0.00000000       5.76161616       0.00000000       0.00000000      -0.00077175
2
Properties=species:S:1:pos:R:3:forces:R:3 energy=-6.249222201617458 pbc="F F F"
N        0.00000000       0.00000000       0.00000000       0.00000000       0.00000000       0.00070990
N        0.00000000       0.00000000       5.82121212       0.00000000       0.00000000      -0.00070990
2
Properties=species:S:1:pos:R:3:forces:R:3 energy=-6.24918386195613 pbc="F F F"
N        0.00000000       0.00000000       0.00000000       0.00000000       0.00000000       0.00056840
N        0.00000000       0.00000000       5.88080808       0.00000000       0.00000000      -0.00056840
2
Properties=species:S:1:pos:R:3:forces:R:3 energy=-6.249154400449044 pbc="F F F"
N        0.00000000       0.00000000       0.00000000       0.00000000       0.00000000       0.00043147
N        0.00000000       0.00000000       5.94040404       0.00000000       0.00000000      -0.00043147
2
Properties=species:S:1:pos:R:3:forces:R:3 energy=-6.249131304415623 pbc="F F F"
N        0.00000000       0.00000000       0.00000000       0.00000000       0.00000000       0.00035882
N        0.00000000       0.00000000       6.00000000       0.00000000       0.00000000      -0.00035882
