2
Properties=species:S:1:pos:R:3:forces:R:3 energy=3737.219329571567 pbc="F F F"
Na       0.00000000       0.00000000       0.00000000       0.00000000       0.00000000  -75954.98437500
Na       0.00000000       0.00000000       0.10000000       0.00000000       0.00000000   75954.98437500
2
Properties=species:S:1:pos:R:3:forces:R:3 energy=1322.6303403137542 pbc="F F F"
Na       0.00000000       0.00000000       0.00000000       0.00000000       0.00000000  -20096.29882812
Na       0.00000000       0.00000000       0.15959596       0.00000000       0.00000000   20096.29882812
2
Properties=species:S:1:pos:R:3:forces:R:3 energy=584.2236020325043 pbc="F F F"
Na       0.00000000       0.00000000       0.00000000       0.00000000       0.00000000   -7277.01611328
Na       0.00000000       0.00000000       0.21919192       0.00000000       0.00000000    7277.01611328
2
Properties=species:S:1:pos:R:3:forces:R:3 energy=293.9045102356293 pbc="F F F"
Na       0.00000000       0.00000000       0.00000000       0.00000000       0.00000000   -3150.56640625
Na       0.00000000       0.00000000       0.27878788       0.00000000       0.00000000    3150.56640625
2
Properties=species:S:1:pos:R:3:forces:R:3 energy=161.04046604617616 pbc="F F F"
Na       0.00000000       0.00000000       0.00000000       0.00000000       0.00000000   -1536.25903320
Na       0.00000000       0.00000000       0.33838384       0.00000000       0.00000000    1536.25903320
2
Properties=species:S:1:pos:R:3:forces:R:3 energy=93.66690800174257 pbc="F F F"
Na       0.00000000       0.00000000       0.00000000       0.00000000       0.00000000    -813.76409912
Na       0.00000000       0.00000000       0.39797980       0.00000000       0.00000000     813.76409912
2
Properties=species:S:1:pos:R:3:forces:R:3 energy=56.962329605252194 pbc="F F F"
Na       0.00000000       0.00000000       0.00000000       0.00000000       0.00000000    -457.18527222
Na       0.00000000       0.00000000       0.45757576       0.00000000       0.00000000     457.18527222
2
Properties=species:S:1:pos:R:3:forces:R:3 energy=35.91431020240815 pbc="F F F"
Na       0.00000000       0.00000000       0.00000000       0.00000000       0.00000000    -268.06582642
Na       0.00000000       0.00000000       0.51717172       0.00000000       0.00000000     268.06582642
2
Properties=species:S:1:pos:R:3:forces:R:3 energy=23.383384461179194 pbc="F F F"
Na       0.00000000       0.00000000       0.00000000       0.00000000       0.00000000    -162.24044800
Na       0.00000000       0.00000000       0.57676768       0.00000000       0.00000000     162.24044800
2
Properties=species:S:1:pos:R:3:forces:R:3 energy=15.711315882715986 pbc="F F F"
Na       0.00000000       0.00000000       0.00000000       0.00000000       0.00000000    -100.57220459
Na       0.00000000       0.00000000       0.63636364       0.00000000       0.00000000     100.57220459
2
Properties=species:S:1:pos:R:3:forces:R:3 energy=10.912832061070697 pbc="F F F"
Na       0.00000000       0.00000000       0.00000000       0.00000000       0.00000000     -63.51404190
Na       0.00000000       0.00000000       0.69595960       0.00000000       0.00000000      63.51404190
2
Properties=species:S:1:pos:R:3:forces:R:3 energy=7.859803521893595 pbc="F F F"
Na       0.00000000       0.00000000       0.00000000       0.00000000       0.00000000     -40.75460434
Na       0.00000000       0.00000000       0.75555556       0.00000000       0.00000000      40.75460434
2
Properties=species:S:1:pos:R:3:forces:R:3 energy=5.88564768238749 pbc="F F F"
Na       0.00000000       0.00000000       0.00000000       0.00000000       0.00000000     -26.60717392
Na       0.00000000       0.00000000       0.81515152       0.00000000       0.00000000      26.60717392
2
Properties=species:S:1:pos:R:3:forces:R:3 energy=4.5832037899158555 pbc="F F F"
Na       0.00000000       0.00000000       0.00000000       0.00000000       0.00000000     -17.79940605
Na       0.00000000       0.00000000       0.87474747       0.00000000       0.00000000      17.79940605
2
Properties=species:S:1:pos:R:3:forces:R:3 energy=3.6972736184537416 pbc="F F F"
Na       0.00000000       0.00000000       0.00000000       0.00000000       0.00000000     -12.38172150
Na       0.00000000       0.00000000       0.93434343       0.00000000       0.00000000      12.38172150
2
Properties=species:S:1:pos:R:3:forces:R:3 energy=3.063332623882226 pbc="F F F"
Na       0.00000000       0.00000000       0.00000000       0.00000000       0.00000000      -9.19779015
Na       0.00000000       0.00000000       0.99393939       0.00000000       0.00000000       9.19779015
2
Properties=species:S:1:pos:R:3:forces:R:3 energy=2.570663043851187 pbc="F F F"
Na       0.00000000       0.00000000       0.00000000       0.00000000       0.00000000      -7.54197264
Na       0.00000000       0.00000000       1.05353535       0.00000000       0.00000000       7.54197264
2
Properties=species:S:1:pos:R:3:forces:R:3 energy=2.145983133967337 pbc="F F F"
Na       0.00000000       0.00000000       0.00000000       0.00000000       0.00000000      -6.81030178
Na       0.00000000       0.00000000       1.11313131       0.00000000       0.00000000       6.81030178
2
Properties=species:S:1:pos:R:3:forces:R:3 energy=1.7532433088217156 pbc="F F F"
Na       0.00000000       0.00000000       0.00000000       0.00000000       0.00000000      -6.37172461
Na       0.00000000       0.00000000       1.17272727       0.00000000       0.00000000       6.37172461
2
Properties=species:S:1:pos:R:3:forces:R:3 energy=1.389815745761954 pbc="F F F"
Na       0.00000000       0.00000000       0.00000000       0.00000000       0.00000000      -5.77878094
Na       0.00000000       0.00000000       1.23232323       0.00000000       0.00000000       5.77878094
2
Properties=species:S:1:pos:R:3:forces:R:3 energy=1.070506507063148 pbc="F F F"
Na       0.00000000       0.00000000       0.00000000       0.00000000       0.00000000      -4.88659048
Na       0.00000000       0.00000000       1.29191919       0.00000000       0.00000000       4.88659048
2
Properties=species:S:1:pos:R:3:forces:R:3 energy=0.8127143394227461 pbc="F F F"
Na       0.00000000       0.00000000       0.00000000       0.00000000       0.00000000      -3.72886539
Na       0.00000000       0.00000000       1.35151515       0.00000000       0.00000000       3.72886539
2
Properties=species:S:1:pos:R:3:forces:R:3 energy=0.6285087477522938 pbc="F F F"
Na       0.00000000       0.00000000       0.00000000       0.00000000       0.00000000      -2.45275116
Na       0.00000000       0.00000000       1.41111111       0.00000000       0.00000000       2.45275116
2
Properties=species:S:1:pos:R:3:forces:R:3 energy=0.5173613279563672 pbc="F F F"
Na       0.00000000       0.00000000       0.00000000       0.00000000       0.00000000      -1.32879269
Na       0.00000000       0.00000000       1.47070707       0.00000000       0.00000000       1.32879269
2
Properties=species:S:1:pos:R:3:forces:R:3 energy=0.4612084380653691 pbc="F F F"
Na       0.00000000       0.00000000       0.00000000       0.00000000       0.00000000      -0.64899486
Na       0.00000000       0.00000000       1.53030303       0.00000000       0.00000000       0.64899486
2
Properties=species:S:1:pos:R:3:forces:R:3 energy=0.4278824071362245 pbc="F F F"
Na       0.00000000       0.00000000       0.00000000       0.00000000       0.00000000      -0.57050955
Na       0.00000000       0.00000000       1.58989899       0.00000000       0.00000000       0.57050955
2
Properties=species:S:1:pos:R:3:forces:R:3 energy=0.38342531842117383 pbc="F F F"
Na       0.00000000       0.00000000       0.00000000       0.00000000       0.00000000      -0.97092825
Na       0.00000000       0.00000000       1.64949495       0.00000000       0.00000000       0.97092825
2
Properties=species:S:1:pos:R:3:forces:R:3 energy=0.3115118416867485 pbc="F F F"
Na       0.00000000       0.00000000       0.00000000       0.00000000       0.00000000      -1.40794086
Na       0.00000000       0.00000000       1.70909091       0.00000000       0.00000000       1.40794086
2
Properties=species:S:1:pos:R:3:forces:R:3 energy=0.2218239461060591 pbc="F F F"
Na       0.00000000       0.00000000       0.00000000       0.00000000       0.00000000      -1.54910171
Na       0.00000000       0.00000000       1.76868687       0.00000000       0.00000000       1.54910171
2
Properties=species:S:1:pos:R:3:forces:R:3 energy=0.13141677243859887 pbc="F F F"
Na       0.00000000       0.00000000       0.00000000       0.00000000       0.00000000      -1.46463871
Na       0.00000000       0.00000000       1.82828283       0.00000000       0.00000000       1.46463871
2
Properties=species:S:1:pos:R:3:forces:R:3 energy=0.04772557930380317 pbc="F F F"
Na       0.00000000       0.00000000       0.00000000       0.00000000       0.00000000      -1.35287273
Na       0.00000000       0.00000000       1.88787879       0.00000000       0.00000000       1.35287273
2
Properties=species:S:1:pos:R:3:forces:R:3 energy=-0.03171969871104646 pbc="F F F"
Na       0.00000000       0.00000000       0.00000000       0.00000000       0.00000000      -1.33200943
Na       0.00000000       0.00000000       1.94747475       0.00000000       0.00000000       1.33200943
2
Properties=species:S:1:pos:R:3:forces:R:3 energy=-0.11306659855290978 pbc="F F F"
Na       0.00000000       0.00000000       0.00000000       0.00000000       0.00000000      -1.41137636
Na       0.00000000       0.00000000       2.00707071       0.00000000       0.00000000       1.41137636
2
Properties=species:S:1:pos:R:3:forces:R:3 energy=-0.20095792207228105 pbc="F F F"
Na       0.00000000       0.00000000       0.00000000       0.00000000       0.00000000      -1.54170120
Na       0.00000000       0.00000000       2.06666667       0.00000000       0.00000000       1.54170120
2
Properties=species:S:1:pos:R:3:forces:R:3 energy=-0.29669770110345034 pbc="F F F"
Na       0.00000000       0.00000000       0.00000000       0.00000000       0.00000000      -1.66612887
Na       0.00000000       0.00000000       2.12626263       0.00000000       0.00000000       1.66612887
2
Properties=species:S:1:pos:R:3:forces:R:3 energy=-0.3985470923441902 pbc="F F F"
Na       0.00000000       0.00000000       0.00000000       0.00000000       0.00000000      -1.74080467
Na       0.00000000       0.00000000       2.18585859       0.00000000       0.00000000       1.74080467
2
Properties=species:S:1:pos:R:3:forces:R:3 energy=-0.5026738194503952 pbc="F F F"
Na       0.00000000       0.00000000       0.00000000       0.00000000       0.00000000      -1.73993933
Na       0.00000000       0.00000000       2.24545455       0.00000000       0.00000000       1.73993933
2
Properties=species:S:1:pos:R:3:forces:R:3 energy=-0.604317241852816 pbc="F F F"
Na       0.00000000       0.00000000       0.00000000       0.00000000       0.00000000      -1.65838492
Na       0.00000000       0.00000000       2.30505051       0.00000000       0.00000000       1.65838492
2
Properties=species:S:1:pos:R:3:forces:R:3 energy=-0.6990168033180582 pbc="F F F"
Na       0.00000000       0.00000000       0.00000000       0.00000000       0.00000000      -1.51065671
Na       0.00000000       0.00000000       2.36464646       0.00000000       0.00000000       1.51065671
2
Properties=species:S:1:pos:R:3:forces:R:3 energy=-0.7835898071323218 pbc="F F F"
Na       0.00000000       0.00000000       0.00000000       0.00000000       0.00000000      -1.32341182
Na       0.00000000       0.00000000       2.42424242       0.00000000       0.00000000       1.32341182
2
Properties=species:S:1:pos:R:3:forces:R:3 energy=-0.8565331437796201 pbc="F F F"
Na       0.00000000       0.00000000       0.00000000       0.00000000       0.00000000      -1.12466395
Na       0.00000000       0.00000000       2.48383838       0.00000000       0.00000000       1.12466395
2
Properties=species:S:1:pos:R:3:forces:R:3 energy=-0.9178419536055047 pbc="F F F"
Na       0.00000000       0.00000000       0.00000000       0.00000000       0.00000000      -0.93573529
Na       0.00000000       0.00000000       2.54343434       0.00000000       0.00000000       0.93573529
2
Properties=species:S:1:pos:R:3:forces:R:3 energy=-0.9685042897191697 pbc="F F F"
Na       0.00000000       0.00000000       0.00000000       0.00000000       0.00000000      -0.76861989
Na       0.00000000       0.00000000       2.60303030       0.00000000       0.00000000       0.76861989
2
Properties=species:S:1:pos:R:3:forces:R:3 energy=-1.0099704679284587 pbc="F F F"
Na       0.00000000       0.00000000       0.00000000       0.00000000       0.00000000      -0.62724698
Na       0.00000000       0.00000000       2.66262626       0.00000000       0.00000000       0.62724698
2
Properties=species:S:1:pos:R:3:forces:R:3 energy=-1.0437509042821398 pbc="F F F"
Na       0.00000000       0.00000000       0.00000000       0.00000000       0.00000000      -0.51013285
Na       0.00000000       0.00000000       2.72222222       0.00000000       0.00000000       0.51013285
2
Properties=species:S:1:pos:R:3:forces:R:3 energy=-1.0711692997394868 pbc="F F F"
Na       0.00000000       0.00000000       0.00000000       0.00000000       0.00000000      -0.41287214
Na       0.00000000       0.00000000       2.78181818       0.00000000       0.00000000       0.41287214
2
Properties=species:S:1:pos:R:3:forces:R:3 energy=-1.0932487817955527 pbc="F F F"
Na       0.00000000       0.00000000       0.00000000       0.00000000       0.00000000      -0.33007094
Na       0.00000000       0.00000000       2.84141414       0.00000000       0.00000000       0.33007094
2
Properties=species:S:1:pos:R:3:forces:R:3 energy=-1.1106973917941463 pbc="F F F"
Na       0.00000000       0.00000000       0.00000000       0.00000000       0.00000000      -0.25670698
Na       0.00000000       0.00000000       2.90101010       0.00000000       0.00000000       0.25670698
2
Properties=species:S:1:pos:R:3:forces:R:3 energy=-1.123954959441279 pbc="F F F"
Na       0.00000000       0.00000000       0.00000000       0.00000000       0.00000000      -0.18888153
Na       0.00000000       0.00000000       2.96060606       0.00000000       0.00000000       0.18888153
2
Properties=species:S:1:pos:R:3:forces:R:3 energy=-1.133269446523789 pbc="F F F"
Na       0.00000000       0.00000000       0.00000000       0.00000000       0.00000000      -0.12405746
Na       0.00000000       0.00000000       3.02020202       0.00000000       0.00000000       0.12405746
2
Properties=species:S:1:pos:R:3:forces:R:3 energy=-1.138775997515655 pbc="F F F"
Na       0.00000000       0.00000000       0.00000000       0.00000000       0.00000000      -0.06099852
Na       0.00000000       0.00000000       3.07979798       0.00000000       0.00000000       0.06099852
2
Properties=species:S:1:pos:R:3:forces:R:3 energy=-1.140574184046139 pbc="F F F"
Na       0.00000000       0.00000000       0.00000000       0.00000000       0.00000000       0.00030599
Na       0.00000000       0.00000000       3.13939394       0.00000000       0.00000000      -0.00030599
2
Properties=species:S:1:pos:R:3:forces:R:3 energy=-1.1387956149344935 pbc="F F F"
Na       0.00000000       0.00000000       0.00000000       0.00000000       0.00000000       0.05875940
Na       0.00000000       0.00000000       3.19898990       0.00000000       0.00000000      -0.05875940
2
Properties=species:S:1:pos:R:3:forces:R:3 energy=-1.1336646161032506 pbc="F F F"
Na       0.00000000       0.00000000       0.00000000       0.00000000       0.00000000       0.11246117
Na       0.00000000       0.00000000       3.25858586       0.00000000       0.00000000      -0.11246117
2
Properties=species:S:1:pos:R:3:forces:R:3 energy=-1.1255298034588281 pbc="F F F"
Na       0.00000000       0.00000000       0.00000000       0.00000000       0.00000000       0.15918995
Na       0.00000000       0.00000000       3.31818182       0.00000000       0.00000000      -0.15918995
2
Properties=species:S:1:pos:R:3:forces:R:3 energy=-1.1148715508105493 pbc="F F F"
Na       0.00000000       0.00000000       0.00000000       0.00000000       0.00000000       0.19680944
Na       0.00000000       0.00000000       3.37777778       0.00000000       0.00000000      -0.19680944
2
Properties=species:S:1:pos:R:3:forces:R:3 energy=-1.1022939791274855 pbc="F F F"
Na       0.00000000       0.00000000       0.00000000       0.00000000       0.00000000       0.22323725
Na       0.00000000       0.00000000       3.43737374       0.00000000       0.00000000      -0.22323725
2
Properties=species:S:1:pos:R:3:forces:R:3 energy=-1.0885344191189763 pbc="F F F"
Na       0.00000000       0.00000000       0.00000000       0.00000000       0.00000000       0.23599568
Na       0.00000000       0.00000000       3.49696970       0.00000000       0.00000000      -0.23599568
2
Properties=species:S:1:pos:R:3:forces:R:3 energy=-1.074495713778422 pbc="F F F"
Na       0.00000000       0.00000000       0.00000000       0.00000000       0.00000000       0.23215400
Na       0.00000000       0.00000000       3.55656566       0.00000000       0.00000000      -0.23215400
2
Properties=species:S:1:pos:R:3:forces:R:3 energy=-1.061216739480373 pbc="F F F"
Na       0.00000000       0.00000000       0.00000000       0.00000000       0.00000000       0.21083122
Na       0.00000000       0.00000000       3.61616162       0.00000000       0.00000000      -0.21083122
2
Properties=species:S:1:pos:R:3:forces:R:3 energy=-1.0495651187350683 pbc="F F F"
Na       0.00000000       0.00000000       0.00000000       0.00000000       0.00000000       0.18003453
Na       0.00000000       0.00000000       3.67575758       0.00000000       0.00000000      -0.18003453
2
Properties=species:S:1:pos:R:3:forces:R:3 energy=-1.039525921592099 pbc="F F F"
Na       0.00000000       0.00000000       0.00000000       0.00000000       0.00000000       0.16098766
Na       0.00000000       0.00000000       3.73535354       0.00000000       0.00000000      -0.16098766
2
Properties=species:S:1:pos:R:3:forces:R:3 energy=-1.0297057054018206 pbc="F F F"
Na       0.00000000       0.00000000       0.00000000       0.00000000       0.00000000       0.17488520
Na       0.00000000       0.00000000       3.79494949       0.00000000       0.00000000      -0.17488520
2
Properties=species:S:1:pos:R:3:forces:R:3 energy=-1.0180118766550983 pbc="F F F"
Na       0.00000000       0.00000000       0.00000000       0.00000000       0.00000000       0.22175905
Na       0.00000000       0.00000000       3.85454545       0.00000000       0.00000000      -0.22175905
2
Properties=species:S:1:pos:R:3:forces:R:3 energy=-1.0029922093122183 pbc="F F F"
Na       0.00000000       0.00000000       0.00000000       0.00000000       0.00000000       0.28288981
Na       0.00000000       0.00000000       3.91414141       0.00000000       0.00000000      -0.28288981
2
Properties=species:S:1:pos:R:3:forces:R:3 energy=-0.9843795636442662 pbc="F F F"
Na       0.00000000       0.00000000       0.00000000       0.00000000       0.00000000       0.34005934
Na       0.00000000       0.00000000       3.97373737       0.00000000       0.00000000      -0.34005934
2
Properties=species:S:1:pos:R:3:forces:R:3 energy=-0.962710335542277 pbc="F F F"
Na       0.00000000       0.00000000       0.00000000       0.00000000       0.00000000       0.38486147
Na       0.00000000       0.00000000       4.03333333       0.00000000       0.00000000      -0.38486147
2
Properties=species:S:1:pos:R:3:forces:R:3 energy=-0.9387751252159657 pbc="F F F"
Na       0.00000000       0.00000000       0.00000000       0.00000000       0.00000000       0.41628620
Na       0.00000000       0.00000000       4.09292929       0.00000000       0.00000000      -0.41628620
2
Properties=species:S:1:pos:R:3:forces:R:3 energy=-0.9133204049754308 pbc="F F F"
Na       0.00000000       0.00000000       0.00000000       0.00000000       0.00000000       0.43622842
Na       0.00000000       0.00000000       4.15252525       0.00000000       0.00000000      -0.43622842
2
Properties=species:S:1:pos:R:3:forces:R:3 energy=-0.8869627089451114 pbc="F F F"
Na       0.00000000       0.00000000       0.00000000       0.00000000       0.00000000       0.44695473
Na       0.00000000       0.00000000       4.21212121       0.00000000       0.00000000      -0.44695473
2
Properties=species:S:1:pos:R:3:forces:R:3 energy=-0.8601939172717404 pbc="F F F"
Na       0.00000000       0.00000000       0.00000000       0.00000000       0.00000000       0.45026454
Na       0.00000000       0.00000000       4.27171717       0.00000000       0.00000000      -0.45026454
2
Properties=species:S:1:pos:R:3:forces:R:3 energy=-0.8334170146442665 pbc="F F F"
Na       0.00000000       0.00000000       0.00000000       0.00000000       0.00000000       0.44742090
Na       0.00000000       0.00000000       4.33131313       0.00000000       0.00000000      -0.44742090
2
Properties=species:S:1:pos:R:3:forces:R:3 energy=-0.8069694872932651 pbc="F F F"
Na       0.00000000       0.00000000       0.00000000       0.00000000       0.00000000       0.43932834
Na       0.00000000       0.00000000       4.39090909       0.00000000       0.00000000      -0.43932834
2
Properties=species:S:1:pos:R:3:forces:R:3 energy=-0.7811416159404684 pbc="F F F"
Na       0.00000000       0.00000000       0.00000000       0.00000000       0.00000000       0.42673266
Na       0.00000000       0.00000000       4.45050505       0.00000000       0.00000000      -0.42673266
2
Properties=species:S:1:pos:R:3:forces:R:3 energy=-0.7561817025227034 pbc="F F F"
Na       0.00000000       0.00000000       0.00000000       0.00000000       0.00000000       0.41034594
Na       0.00000000       0.00000000       4.51010101       0.00000000       0.00000000      -0.41034594
2
Properties=species:S:1:pos:R:3:forces:R:3 energy=-0.7322919814634243 pbc="F F F"
Na       0.00000000       0.00000000       0.00000000       0.00000000       0.00000000       0.39091778
Na       0.00000000       0.00000000       4.56969697       0.00000000       0.00000000      -0.39091778
2
Properties=species:S:1:pos:R:3:forces:R:3 energy=-0.7096319765006626 pbc="F F F"
Na       0.00000000       0.00000000       0.00000000       0.00000000       0.00000000       0.36922500
Na       0.00000000       0.00000000       4.62929293       0.00000000       0.00000000      -0.36922500
2
Properties=species:S:1:pos:R:3:forces:R:3 energy=-0.6883129924936253 pbc="F F F"
Na       0.00000000       0.00000000       0.00000000       0.00000000       0.00000000       0.34606504
Na       0.00000000       0.00000000       4.68888889       0.00000000       0.00000000      -0.34606504
2
Properties=species:S:1:pos:R:3:forces:R:3 energy=-0.6683975363996448 pbc="F F F"
Na       0.00000000       0.00000000       0.00000000       0.00000000       0.00000000       0.32221833
Na       0.00000000       0.00000000       4.74848485       0.00000000       0.00000000      -0.32221833
2
Properties=species:S:1:pos:R:3:forces:R:3 energy=-0.6499056597173339 pbc="F F F"
Na       0.00000000       0.00000000       0.00000000       0.00000000       0.00000000       0.29844138
Na       0.00000000       0.00000000       4.80808081       0.00000000       0.00000000      -0.29844138
2
Properties=species:S:1:pos:R:3:forces:R:3 energy=-0.6328105516708553 pbc="F F F"
Na       0.00000000       0.00000000       0.00000000       0.00000000       0.00000000       0.27541822
Na       0.00000000       0.00000000       4.86767677       0.00000000       0.00000000      -0.27541822
2
Properties=species:S:1:pos:R:3:forces:R:3 energy=-0.6170507187323397 pbc="F F F"
Na       0.00000000       0.00000000       0.00000000       0.00000000       0.00000000       0.25373167
Na       0.00000000       0.00000000       4.92727273       0.00000000       0.00000000      -0.25373167
2
Properties=species:S:1:pos:R:3:forces:R:3 energy=-0.6025330392180216 pbc="F F F"
Na       0.00000000       0.00000000       0.00000000       0.00000000       0.00000000       0.23378308
Na       0.00000000       0.00000000       4.98686869       0.00000000       0.00000000      -0.23378308
2
Properties=species:S:1:pos:R:3:forces:R:3 energy=-0.5891485761101423 pbc="F F F"
Na       0.00000000       0.00000000       0.00000000       0.00000000       0.00000000       0.21575506
Na       0.00000000       0.00000000       5.04646465       0.00000000       0.00000000      -0.21575506
2
Properties=species:S:1:pos:R:3:forces:R:3 energy=-0.57678068328864 pbc="F F F"
Na       0.00000000       0.00000000       0.00000000       0.00000000       0.00000000       0.19958277
Na       0.00000000       0.00000000       5.10606061       0.00000000       0.00000000      -0.19958277
2
Properties=species:S:1:pos:R:3:forces:R:3 energy=-0.5653271908823528 pbc="F F F"
Na       0.00000000       0.00000000       0.00000000       0.00000000       0.00000000       0.18496875
Na       0.00000000       0.00000000       5.16565657       0.00000000       0.00000000      -0.18496875
2
Properties=species:S:1:pos:R:3:forces:R:3 energy=-0.5547107663897675 pbc="F F F"
Na       0.00000000       0.00000000       0.00000000       0.00000000       0.00000000       0.17146610
Na       0.00000000       0.00000000       5.22525253       0.00000000       0.00000000      -0.17146610
2
Properties=species:S:1:pos:R:3:forces:R:3 energy=-0.5448787630835602 pbc="F F F"
Na       0.00000000       0.00000000       0.00000000       0.00000000       0.00000000       0.15855512
Na       0.00000000       0.00000000       5.28484848       0.00000000       0.00000000      -0.15855512
2
Properties=species:S:1:pos:R:3:forces:R:3 energy=-0.5358100369908867 pbc="F F F"
Na       0.00000000       0.00000000       0.00000000       0.00000000       0.00000000       0.14575931
Na       0.00000000       0.00000000       5.34444444       0.00000000       0.00000000      -0.14575931
2
Properties=species:S:1:pos:R:3:forces:R:3 energy=-0.5275097720846749 pbc="F F F"
Na       0.00000000       0.00000000       0.00000000       0.00000000       0.00000000       0.13272998
Na       0.00000000       0.00000000       5.40404040       0.00000000       0.00000000      -0.13272998
2
Properties=species:S:1:pos:R:3:forces:R:3 energy=-0.5199964895149157 pbc="F F F"
Na       0.00000000       0.00000000       0.00000000       0.00000000       0.00000000       0.11930385
Na       0.00000000       0.00000000       5.46363636       0.00000000       0.00000000      -0.11930385
2
Properties=species:S:1:pos:R:3:forces:R:3 energy=-0.5132984547829189 pbc="F F F"
Na       0.00000000       0.00000000       0.00000000       0.00000000       0.00000000       0.10551161
Na       0.00000000       0.00000000       5.52323232       0.00000000       0.00000000      -0.10551161
2
Properties=species:S:1:pos:R:3:forces:R:3 energy=-0.5074250889786281 pbc="F F F"
Na       0.00000000       0.00000000       0.00000000       0.00000000       0.00000000       0.09157583
Na       0.00000000       0.00000000       5.58282828       0.00000000       0.00000000      -0.09157583
2
Properties=species:S:1:pos:R:3:forces:R:3 energy=-0.5023788003026097 pbc="F F F"
Na       0.00000000       0.00000000       0.00000000       0.00000000       0.00000000       0.07786331
Na       0.00000000       0.00000000       5.64242424       0.00000000       0.00000000      -0.07786331
2
Properties=species:S:1:pos:R:3:forces:R:3 energy=-0.4981300798719838 pbc="F F F"
Na       0.00000000       0.00000000       0.00000000       0.00000000       0.00000000       0.06482023
Na       0.00000000       0.00000000       5.70202020       0.00000000       0.00000000      -0.06482023
2
Properties=species:S:1:pos:R:3:forces:R:3 energy=-0.4946303161350747 pbc="F F F"
Na       0.00000000       0.00000000       0.00000000       0.00000000       0.00000000       0.05293500
Na       0.00000000       0.00000000       5.76161616       0.00000000       0.00000000      -0.05293500
2
Properties=species:S:1:pos:R:3:forces:R:3 energy=-0.49178876576377784 pbc="F F F"
Na       0.00000000       0.00000000       0.00000000       0.00000000       0.00000000       0.04270401
Na       0.00000000       0.00000000       5.82121212       0.00000000       0.00000000      -0.04270401
2
Properties=species:S:1:pos:R:3:forces:R:3 energy=-0.48949972445208717 pbc="F F F"
Na       0.00000000       0.00000000       0.00000000       0.00000000       0.00000000       0.03456299
Na       0.00000000       0.00000000       5.88080808       0.00000000       0.00000000      -0.03456299
2
Properties=species:S:1:pos:R:3:forces:R:3 energy=-0.4876195016842307 pbc="F F F"
Na       0.00000000       0.00000000       0.00000000       0.00000000       0.00000000       0.02889581
Na       0.00000000       0.00000000       5.94040404       0.00000000       0.00000000      -0.02889581
2
Properties=species:S:1:pos:R:3:forces:R:3 energy=-0.4859983915830012 pbc="F F F"
Na       0.00000000       0.00000000       0.00000000       0.00000000       0.00000000       0.02602784
Na       0.00000000       0.00000000       6.00000000       0.00000000       0.00000000      -0.02602784
