2
Properties=species:S:1:pos:R:3:forces:R:3 energy=32465.87731540052 pbc="F F F"
Nb       0.00000000       0.00000000       0.00000000       0.00000000       0.00000000 -765483.81250000
Nb       0.00000000       0.00000000       0.10000000       0.00000000       0.00000000  765483.81250000
2
Properties=species:S:1:pos:R:3:forces:R:3 energy=9735.024776338021 pbc="F F F"
Nb       0.00000000       0.00000000       0.00000000       0.00000000       0.00000000 -171133.71875000
Nb       0.00000000       0.00000000       0.15959596       0.00000000       0.00000000  171133.71875000
2
Properties=species:S:1:pos:R:3:forces:R:3 energy=3782.9171103223953 pbc="F F F"
Nb       0.00000000       0.00000000       0.00000000       0.00000000       0.00000000  -54601.10156250
Nb       0.00000000       0.00000000       0.21919192       0.00000000       0.00000000   54601.10156250
2
Properties=species:S:1:pos:R:3:forces:R:3 energy=1701.6782187208328 pbc="F F F"
Nb       0.00000000       0.00000000       0.00000000       0.00000000       0.00000000  -21283.84179688
Nb       0.00000000       0.00000000       0.27878788       0.00000000       0.00000000   21283.84179688
2
Properties=species:S:1:pos:R:3:forces:R:3 energy=843.1212729200515 pbc="F F F"
Nb       0.00000000       0.00000000       0.00000000       0.00000000       0.00000000   -9369.18261719
Nb       0.00000000       0.00000000       0.33838384       0.00000000       0.00000000    9369.18261719
2
Properties=species:S:1:pos:R:3:forces:R:3 energy=450.93319309240286 pbc="F F F"
Nb       0.00000000       0.00000000       0.00000000       0.00000000       0.00000000   -4464.33300781
Nb       0.00000000       0.00000000       0.39797980       0.00000000       0.00000000    4464.33300781
2
Properties=species:S:1:pos:R:3:forces:R:3 energy=259.10180272421474 pbc="F F F"
Nb       0.00000000       0.00000000       0.00000000       0.00000000       0.00000000   -2249.94433594
Nb       0.00000000       0.00000000       0.45757576       0.00000000       0.00000000    2249.94433594
2
Properties=species:S:1:pos:R:3:forces:R:3 energy=160.53321449272138 pbc="F F F"
Nb       0.00000000       0.00000000       0.00000000       0.00000000       0.00000000   -1181.26818848
Nb       0.00000000       0.00000000       0.51717172       0.00000000       0.00000000    1181.26818848
2
Properties=species:S:1:pos:R:3:forces:R:3 energy=108.10223004000059 pbc="F F F"
Nb       0.00000000       0.00000000       0.00000000       0.00000000       0.00000000    -636.70306396
Nb       0.00000000       0.00000000       0.57676768       0.00000000       0.00000000     636.70306396
2
Properties=species:S:1:pos:R:3:forces:R:3 energy=79.69107441534473 pbc="F F F"
Nb       0.00000000       0.00000000       0.00000000       0.00000000       0.00000000    -345.89602661
Nb       0.00000000       0.00000000       0.63636364       0.00000000       0.00000000     345.89602661
2
Properties=species:S:1:pos:R:3:forces:R:3 energy=64.33654420758496 pbc="F F F"
Nb       0.00000000       0.00000000       0.00000000       0.00000000       0.00000000    -184.87510681
Nb       0.00000000       0.00000000       0.69595960       0.00000000       0.00000000     184.87510681
2
Properties=species:S:1:pos:R:3:forces:R:3 energy=56.24346196967577 pbc="F F F"
Nb       0.00000000       0.00000000       0.00000000       0.00000000       0.00000000     -95.92408752
Nb       0.00000000       0.00000000       0.75555556       0.00000000       0.00000000      95.92408752
2
Properties=species:S:1:pos:R:3:forces:R:3 energy=51.99645679213328 pbc="F F F"
Nb       0.00000000       0.00000000       0.00000000       0.00000000       0.00000000     -53.07203293
Nb       0.00000000       0.00000000       0.81515152       0.00000000       0.00000000      53.07203293
2
Properties=species:S:1:pos:R:3:forces:R:3 energy=49.233105750849184 pbc="F F F"
Nb       0.00000000       0.00000000       0.00000000       0.00000000       0.00000000     -45.17204285
Nb       0.00000000       0.00000000       0.87474747       0.00000000       0.00000000      45.17204285
2
Properties=species:S:1:pos:R:3:forces:R:3 energy=49.921743113513614 pbc="F F F"
Nb       0.00000000       0.00000000       0.00000000       0.00000000       0.00000000     225.09631348
Nb       0.00000000       0.00000000       0.93434343       0.00000000       0.00000000    -225.09631348
2
Properties=species:S:1:pos:R:3:forces:R:3 energy=58.190378707947374 pbc="F F F"
Nb       0.00000000       0.00000000       0.00000000       0.00000000       0.00000000      63.58679581
Nb       0.00000000       0.00000000       0.99393939       0.00000000       0.00000000     -63.58679581
2
Properties=species:S:1:pos:R:3:forces:R:3 energy=55.68233078011208 pbc="F F F"
Nb       0.00000000       0.00000000       0.00000000       0.00000000       0.00000000    -121.20698547
Nb       0.00000000       0.00000000       1.05353535       0.00000000       0.00000000     121.20698547
2
Properties=species:S:1:pos:R:3:forces:R:3 energy=45.79283638136525 pbc="F F F"
Nb       0.00000000       0.00000000       0.00000000       0.00000000       0.00000000    -192.31192017
Nb       0.00000000       0.00000000       1.11313131       0.00000000       0.00000000     192.31192017
2
Properties=species:S:1:pos:R:3:forces:R:3 energy=33.23221894048178 pbc="F F F"
Nb       0.00000000       0.00000000       0.00000000       0.00000000       0.00000000    -219.22865295
Nb       0.00000000       0.00000000       1.17272727       0.00000000       0.00000000     219.22865295
2
Properties=species:S:1:pos:R:3:forces:R:3 energy=20.808622180890282 pbc="F F F"
Nb       0.00000000       0.00000000       0.00000000       0.00000000       0.00000000    -192.92753601
Nb       0.00000000       0.00000000       1.23232323       0.00000000       0.00000000     192.92753601
2
Properties=species:S:1:pos:R:3:forces:R:3 energy=10.442597542023757 pbc="F F F"
Nb       0.00000000       0.00000000       0.00000000       0.00000000       0.00000000    -155.96275330
Nb       0.00000000       0.00000000       1.29191919       0.00000000       0.00000000     155.96275330
2
Properties=species:S:1:pos:R:3:forces:R:3 energy=2.2528294614416247 pbc="F F F"
Nb       0.00000000       0.00000000       0.00000000       0.00000000       0.00000000    -114.54219055
Nb       0.00000000       0.00000000       1.35151515       0.00000000       0.00000000     114.54219055
2
Properties=species:S:1:pos:R:3:forces:R:3 energy=-2.9993615245681102 pbc="F F F"
Nb       0.00000000       0.00000000       0.00000000       0.00000000       0.00000000     -64.30988312
Nb       0.00000000       0.00000000       1.41111111       0.00000000       0.00000000      64.30988312
2
Properties=species:S:1:pos:R:3:forces:R:3 energy=-5.880898567820324 pbc="F F F"
Nb       0.00000000       0.00000000       0.00000000       0.00000000       0.00000000     -36.04943466
Nb       0.00000000       0.00000000       1.47070707       0.00000000       0.00000000      36.04943466
2
Properties=species:S:1:pos:R:3:forces:R:3 energy=-7.588743075207823 pbc="F F F"
Nb       0.00000000       0.00000000       0.00000000       0.00000000       0.00000000     -22.56654358
Nb       0.00000000       0.00000000       1.53030303       0.00000000       0.00000000      22.56654358
2
Properties=species:S:1:pos:R:3:forces:R:3 energy=-8.646375898562233 pbc="F F F"
Nb       0.00000000       0.00000000       0.00000000       0.00000000       0.00000000     -13.26963043
Nb       0.00000000       0.00000000       1.58989899       0.00000000       0.00000000      13.26963043
2
Properties=species:S:1:pos:R:3:forces:R:3 energy=-9.219175291657981 pbc="F F F"
Nb       0.00000000       0.00000000       0.00000000       0.00000000       0.00000000      -6.47944164
Nb       0.00000000       0.00000000       1.64949495       0.00000000       0.00000000       6.47944164
2
Properties=species:S:1:pos:R:3:forces:R:3 energy=-9.481110626328041 pbc="F F F"
Nb       0.00000000       0.00000000       0.00000000       0.00000000       0.00000000      -2.73479199
Nb       0.00000000       0.00000000       1.70909091       0.00000000       0.00000000       2.73479199
2
Properties=species:S:1:pos:R:3:forces:R:3 energy=-9.579194233005042 pbc="F F F"
Nb       0.00000000       0.00000000       0.00000000       0.00000000       0.00000000      -0.73627478
Nb       0.00000000       0.00000000       1.76868687       0.00000000       0.00000000       0.73627478
2
Properties=species:S:1:pos:R:3:forces:R:3 energy=-9.584229297795543 pbc="F F F"
Nb       0.00000000       0.00000000       0.00000000       0.00000000       0.00000000       0.46598133
Nb       0.00000000       0.00000000       1.82828283       0.00000000       0.00000000      -0.46598133
2
Properties=species:S:1:pos:R:3:forces:R:3 energy=-9.534066685480035 pbc="F F F"
Nb       0.00000000       0.00000000       0.00000000       0.00000000       0.00000000       1.14271832
Nb       0.00000000       0.00000000       1.88787879       0.00000000       0.00000000      -1.14271832
2
Properties=species:S:1:pos:R:3:forces:R:3 energy=-9.455261026575032 pbc="F F F"
Nb       0.00000000       0.00000000       0.00000000       0.00000000       0.00000000       1.45654500
Nb       0.00000000       0.00000000       1.94747475       0.00000000       0.00000000      -1.45654500
2
Properties=species:S:1:pos:R:3:forces:R:3 energy=-9.363926169530552 pbc="F F F"
Nb       0.00000000       0.00000000       0.00000000       0.00000000       0.00000000       1.59564745
Nb       0.00000000       0.00000000       2.00707071       0.00000000       0.00000000      -1.59564745
2
Properties=species:S:1:pos:R:3:forces:R:3 energy=-9.264920907590644 pbc="F F F"
Nb       0.00000000       0.00000000       0.00000000       0.00000000       0.00000000       1.73983407
Nb       0.00000000       0.00000000       2.06666667       0.00000000       0.00000000      -1.73983407
2
Properties=species:S:1:pos:R:3:forces:R:3 energy=-9.15425731688889 pbc="F F F"
Nb       0.00000000       0.00000000       0.00000000       0.00000000       0.00000000       1.99510145
Nb       0.00000000       0.00000000       2.12626263       0.00000000       0.00000000      -1.99510145
2
Properties=species:S:1:pos:R:3:forces:R:3 energy=-9.025169150850445 pbc="F F F"
Nb       0.00000000       0.00000000       0.00000000       0.00000000       0.00000000       2.34496355
Nb       0.00000000       0.00000000       2.18585859       0.00000000       0.00000000      -2.34496355
2
Properties=species:S:1:pos:R:3:forces:R:3 energy=-8.875241436361737 pbc="F F F"
Nb       0.00000000       0.00000000       0.00000000       0.00000000       0.00000000       2.66987038
Nb       0.00000000       0.00000000       2.24545455       0.00000000       0.00000000      -2.66987038
2
Properties=species:S:1:pos:R:3:forces:R:3 energy=-8.710251490450618 pbc="F F F"
Nb       0.00000000       0.00000000       0.00000000       0.00000000       0.00000000       2.83031178
Nb       0.00000000       0.00000000       2.30505051       0.00000000       0.00000000      -2.83031178
2
Properties=species:S:1:pos:R:3:forces:R:3 energy=-8.542843059241088 pbc="F F F"
Nb       0.00000000       0.00000000       0.00000000       0.00000000       0.00000000       2.74424553
Nb       0.00000000       0.00000000       2.36464646       0.00000000       0.00000000      -2.74424553
2
Properties=species:S:1:pos:R:3:forces:R:3 energy=-8.38814799251133 pbc="F F F"
Nb       0.00000000       0.00000000       0.00000000       0.00000000       0.00000000       2.40915060
Nb       0.00000000       0.00000000       2.42424242       0.00000000       0.00000000      -2.40915060
2
Properties=species:S:1:pos:R:3:forces:R:3 energy=-8.259503016258655 pbc="F F F"
Nb       0.00000000       0.00000000       0.00000000       0.00000000       0.00000000       1.88350844
Nb       0.00000000       0.00000000       2.48383838       0.00000000       0.00000000      -1.88350844
2
Properties=species:S:1:pos:R:3:forces:R:3 energy=-8.165504060179913 pbc="F F F"
Nb       0.00000000       0.00000000       0.00000000       0.00000000       0.00000000       1.26530409
Nb       0.00000000       0.00000000       2.54343434       0.00000000       0.00000000      -1.26530409
2
Properties=species:S:1:pos:R:3:forces:R:3 energy=-8.10808595911242 pbc="F F F"
Nb       0.00000000       0.00000000       0.00000000       0.00000000       0.00000000       0.67751753
Nb       0.00000000       0.00000000       2.60303030       0.00000000       0.00000000      -0.67751753
2
Properties=species:S:1:pos:R:3:forces:R:3 energy=-8.081674058744243 pbc="F F F"
Nb       0.00000000       0.00000000       0.00000000       0.00000000       0.00000000       0.24316841
Nb       0.00000000       0.00000000       2.66262626       0.00000000       0.00000000      -0.24316841
2
Properties=species:S:1:pos:R:3:forces:R:3 energy=-8.074386881355892 pbc="F F F"
Nb       0.00000000       0.00000000       0.00000000       0.00000000       0.00000000       0.04352346
Nb       0.00000000       0.00000000       2.72222222       0.00000000       0.00000000      -0.04352346
2
Properties=species:S:1:pos:R:3:forces:R:3 energy=-8.071651395529681 pbc="F F F"
Nb       0.00000000       0.00000000       0.00000000       0.00000000       0.00000000       0.08470617
Nb       0.00000000       0.00000000       2.78181818       0.00000000       0.00000000      -0.08470617
2
Properties=species:S:1:pos:R:3:forces:R:3 energy=-8.060779006690717 pbc="F F F"
Nb       0.00000000       0.00000000       0.00000000       0.00000000       0.00000000       0.30150193
Nb       0.00000000       0.00000000       2.84141414       0.00000000       0.00000000      -0.30150193
2
Properties=species:S:1:pos:R:3:forces:R:3 energy=-8.0341969351444 pbc="F F F"
Nb       0.00000000       0.00000000       0.00000000       0.00000000       0.00000000       0.59518296
Nb       0.00000000       0.00000000       2.90101010       0.00000000       0.00000000      -0.59518296
2
Properties=species:S:1:pos:R:3:forces:R:3 energy=-7.9900945569034985 pbc="F F F"
Nb       0.00000000       0.00000000       0.00000000       0.00000000       0.00000000       0.87727273
Nb       0.00000000       0.00000000       2.96060606       0.00000000       0.00000000      -0.87727273
2
Properties=species:S:1:pos:R:3:forces:R:3 energy=-7.930902120471612 pbc="F F F"
Nb       0.00000000       0.00000000       0.00000000       0.00000000       0.00000000       1.09693217
Nb       0.00000000       0.00000000       3.02020202       0.00000000       0.00000000      -1.09693217
2
Properties=species:S:1:pos:R:3:forces:R:3 energy=-7.860750274512832 pbc="F F F"
Nb       0.00000000       0.00000000       0.00000000       0.00000000       0.00000000       1.24720395
Nb       0.00000000       0.00000000       3.07979798       0.00000000       0.00000000      -1.24720395
2
Properties=species:S:1:pos:R:3:forces:R:3 energy=-7.783156873349536 pbc="F F F"
Nb       0.00000000       0.00000000       0.00000000       0.00000000       0.00000000       1.35169005
Nb       0.00000000       0.00000000       3.13939394       0.00000000       0.00000000      -1.35169005
2
Properties=species:S:1:pos:R:3:forces:R:3 energy=-7.700024873589976 pbc="F F F"
Nb       0.00000000       0.00000000       0.00000000       0.00000000       0.00000000       1.43594670
Nb       0.00000000       0.00000000       3.19898990       0.00000000       0.00000000      -1.43594670
2
Properties=species:S:1:pos:R:3:forces:R:3 energy=-7.612283065485305 pbc="F F F"
Nb       0.00000000       0.00000000       0.00000000       0.00000000       0.00000000       1.50564647
Nb       0.00000000       0.00000000       3.25858586       0.00000000       0.00000000      -1.50564647
2
Properties=species:S:1:pos:R:3:forces:R:3 energy=-7.521015466541068 pbc="F F F"
Nb       0.00000000       0.00000000       0.00000000       0.00000000       0.00000000       1.55269742
Nb       0.00000000       0.00000000       3.31818182       0.00000000       0.00000000      -1.55269742
2
Properties=species:S:1:pos:R:3:forces:R:3 energy=-7.427808456870597 pbc="F F F"
Nb       0.00000000       0.00000000       0.00000000       0.00000000       0.00000000       1.56997716
Nb       0.00000000       0.00000000       3.37777778       0.00000000       0.00000000      -1.56997716
2
Properties=species:S:1:pos:R:3:forces:R:3 energy=-7.334549260197249 pbc="F F F"
Nb       0.00000000       0.00000000       0.00000000       0.00000000       0.00000000       1.55405700
Nb       0.00000000       0.00000000       3.43737374       0.00000000       0.00000000      -1.55405700
2
Properties=species:S:1:pos:R:3:forces:R:3 energy=-7.2432538882814494 pbc="F F F"
Nb       0.00000000       0.00000000       0.00000000       0.00000000       0.00000000       1.50418591
Nb       0.00000000       0.00000000       3.49696970       0.00000000       0.00000000      -1.50418591
2
Properties=species:S:1:pos:R:3:forces:R:3 energy=-7.155864064679685 pbc="F F F"
Nb       0.00000000       0.00000000       0.00000000       0.00000000       0.00000000       1.42417300
Nb       0.00000000       0.00000000       3.55656566       0.00000000       0.00000000      -1.42417300
2
Properties=species:S:1:pos:R:3:forces:R:3 energy=-7.073915827736008 pbc="F F F"
Nb       0.00000000       0.00000000       0.00000000       0.00000000       0.00000000       1.32359064
Nb       0.00000000       0.00000000       3.61616162       0.00000000       0.00000000      -1.32359064
2
Properties=species:S:1:pos:R:3:forces:R:3 energy=-6.998252683187322 pbc="F F F"
Nb       0.00000000       0.00000000       0.00000000       0.00000000       0.00000000       1.21545219
Nb       0.00000000       0.00000000       3.67575758       0.00000000       0.00000000      -1.21545219
2
Properties=species:S:1:pos:R:3:forces:R:3 energy=-6.928952726990191 pbc="F F F"
Nb       0.00000000       0.00000000       0.00000000       0.00000000       0.00000000       1.11170924
Nb       0.00000000       0.00000000       3.73535354       0.00000000       0.00000000      -1.11170924
2
Properties=species:S:1:pos:R:3:forces:R:3 energy=-6.865512533147152 pbc="F F F"
Nb       0.00000000       0.00000000       0.00000000       0.00000000       0.00000000       1.01950645
Nb       0.00000000       0.00000000       3.79494949       0.00000000       0.00000000      -1.01950645
2
Properties=species:S:1:pos:R:3:forces:R:3 energy=-6.807179293154669 pbc="F F F"
Nb       0.00000000       0.00000000       0.00000000       0.00000000       0.00000000       0.94005221
Nb       0.00000000       0.00000000       3.85454545       0.00000000       0.00000000      -0.94005221
2
Properties=species:S:1:pos:R:3:forces:R:3 energy=-6.7532768472506035 pbc="F F F"
Nb       0.00000000       0.00000000       0.00000000       0.00000000       0.00000000       0.87006664
Nb       0.00000000       0.00000000       3.91414141       0.00000000       0.00000000      -0.87006664
2
Properties=species:S:1:pos:R:3:forces:R:3 energy=-6.7033895708310425 pbc="F F F"
Nb       0.00000000       0.00000000       0.00000000       0.00000000       0.00000000       0.80437982
Nb       0.00000000       0.00000000       3.97373737       0.00000000       0.00000000      -0.80437982
2
Properties=species:S:1:pos:R:3:forces:R:3 energy=-6.657408492942279 pbc="F F F"
Nb       0.00000000       0.00000000       0.00000000       0.00000000       0.00000000       0.73837596
Nb       0.00000000       0.00000000       4.03333333       0.00000000       0.00000000      -0.73837596
2
Properties=species:S:1:pos:R:3:forces:R:3 energy=-6.61544084927622 pbc="F F F"
Nb       0.00000000       0.00000000       0.00000000       0.00000000       0.00000000       0.66943842
Nb       0.00000000       0.00000000       4.09292929       0.00000000       0.00000000      -0.66943842
2
Properties=species:S:1:pos:R:3:forces:R:3 energy=-6.577681139732693 pbc="F F F"
Nb       0.00000000       0.00000000       0.00000000       0.00000000       0.00000000       0.59732437
Nb       0.00000000       0.00000000       4.15252525       0.00000000       0.00000000      -0.59732437
2
Properties=species:S:1:pos:R:3:forces:R:3 energy=-6.544276156497268 pbc="F F F"
Nb       0.00000000       0.00000000       0.00000000       0.00000000       0.00000000       0.52368373
Nb       0.00000000       0.00000000       4.21212121       0.00000000       0.00000000      -0.52368373
2
Properties=species:S:1:pos:R:3:forces:R:3 energy=-6.515239250051272 pbc="F F F"
Nb       0.00000000       0.00000000       0.00000000       0.00000000       0.00000000       0.45120427
Nb       0.00000000       0.00000000       4.27171717       0.00000000       0.00000000      -0.45120427
2
Properties=species:S:1:pos:R:3:forces:R:3 energy=-6.490415252298357 pbc="F F F"
Nb       0.00000000       0.00000000       0.00000000       0.00000000       0.00000000       0.38276955
Nb       0.00000000       0.00000000       4.33131313       0.00000000       0.00000000      -0.38276955
2
Properties=species:S:1:pos:R:3:forces:R:3 energy=-6.469487038243102 pbc="F F F"
Nb       0.00000000       0.00000000       0.00000000       0.00000000       0.00000000       0.32082170
Nb       0.00000000       0.00000000       4.39090909       0.00000000       0.00000000      -0.32082170
2
Properties=species:S:1:pos:R:3:forces:R:3 energy=-6.452013527243865 pbc="F F F"
Nb       0.00000000       0.00000000       0.00000000       0.00000000       0.00000000       0.26702297
Nb       0.00000000       0.00000000       4.45050505       0.00000000       0.00000000      -0.26702297
2
Properties=species:S:1:pos:R:3:forces:R:3 energy=-6.437482147771463 pbc="F F F"
Nb       0.00000000       0.00000000       0.00000000       0.00000000       0.00000000       0.22213879
Nb       0.00000000       0.00000000       4.51010101       0.00000000       0.00000000      -0.22213879
2
Properties=species:S:1:pos:R:3:forces:R:3 energy=-6.42535991766974 pbc="F F F"
Nb       0.00000000       0.00000000       0.00000000       0.00000000       0.00000000       0.18610266
Nb       0.00000000       0.00000000       4.56969697       0.00000000       0.00000000      -0.18610266
2
Properties=species:S:1:pos:R:3:forces:R:3 energy=-6.415137948402386 pbc="F F F"
Nb       0.00000000       0.00000000       0.00000000       0.00000000       0.00000000       0.15821826
Nb       0.00000000       0.00000000       4.62929293       0.00000000       0.00000000      -0.15821826
2
Properties=species:S:1:pos:R:3:forces:R:3 energy=-6.406361525471605 pbc="F F F"
Nb       0.00000000       0.00000000       0.00000000       0.00000000       0.00000000       0.13740301
Nb       0.00000000       0.00000000       4.68888889       0.00000000       0.00000000      -0.13740301
2
Properties=species:S:1:pos:R:3:forces:R:3 energy=-6.398644388190287 pbc="F F F"
Nb       0.00000000       0.00000000       0.00000000       0.00000000       0.00000000       0.12243699
Nb       0.00000000       0.00000000       4.74848485       0.00000000       0.00000000      -0.12243699
2
Properties=species:S:1:pos:R:3:forces:R:3 energy=-6.391674942900185 pbc="F F F"
Nb       0.00000000       0.00000000       0.00000000       0.00000000       0.00000000       0.11215633
Nb       0.00000000       0.00000000       4.80808081       0.00000000       0.00000000      -0.11215633
2
Properties=species:S:1:pos:R:3:forces:R:3 energy=-6.3852034897389505 pbc="F F F"
Nb       0.00000000       0.00000000       0.00000000       0.00000000       0.00000000       0.10555381
Nb       0.00000000       0.00000000       4.86767677       0.00000000       0.00000000      -0.10555381
2
Properties=species:S:1:pos:R:3:forces:R:3 energy=-6.379037118479414 pbc="F F F"
Nb       0.00000000       0.00000000       0.00000000       0.00000000       0.00000000       0.10180679
Nb       0.00000000       0.00000000       4.92727273       0.00000000       0.00000000      -0.10180679
2
Properties=species:S:1:pos:R:3:forces:R:3 energy=-6.373025664840079 pbc="F F F"
Nb       0.00000000       0.00000000       0.00000000       0.00000000       0.00000000       0.10024064
Nb       0.00000000       0.00000000       4.98686869       0.00000000       0.00000000      -0.10024064
2
Properties=species:S:1:pos:R:3:forces:R:3 energy=-6.367057921130441 pbc="F F F"
Nb       0.00000000       0.00000000       0.00000000       0.00000000       0.00000000       0.10026060
Nb       0.00000000       0.00000000       5.04646465       0.00000000       0.00000000      -0.10026060
2
Properties=species:S:1:pos:R:3:forces:R:3 energy=-6.361056017239233 pbc="F F F"
Nb       0.00000000       0.00000000       0.00000000       0.00000000       0.00000000       0.10127285
Nb       0.00000000       0.00000000       5.10606061       0.00000000       0.00000000      -0.10127285
2
Properties=species:S:1:pos:R:3:forces:R:3 energy=-6.354979412729725 pbc="F F F"
Nb       0.00000000       0.00000000       0.00000000       0.00000000       0.00000000       0.10263620
Nb       0.00000000       0.00000000       5.16565657       0.00000000       0.00000000      -0.10263620
2
Properties=species:S:1:pos:R:3:forces:R:3 energy=-6.348828998304831 pbc="F F F"
Nb       0.00000000       0.00000000       0.00000000       0.00000000       0.00000000       0.10365960
Nb       0.00000000       0.00000000       5.22525253       0.00000000       0.00000000      -0.10365960
2
Properties=species:S:1:pos:R:3:forces:R:3 energy=-6.342644635593573 pbc="F F F"
Nb       0.00000000       0.00000000       0.00000000       0.00000000       0.00000000       0.10367028
Nb       0.00000000       0.00000000       5.28484848       0.00000000       0.00000000      -0.10367028
2
Properties=species:S:1:pos:R:3:forces:R:3 energy=-6.336503862855971 pbc="F F F"
Nb       0.00000000       0.00000000       0.00000000       0.00000000       0.00000000       0.10210595
Nb       0.00000000       0.00000000       5.34444444       0.00000000       0.00000000      -0.10210595
2
Properties=species:S:1:pos:R:3:forces:R:3 energy=-6.330512727371073 pbc="F F F"
Nb       0.00000000       0.00000000       0.00000000       0.00000000       0.00000000       0.09861214
Nb       0.00000000       0.00000000       5.40404040       0.00000000       0.00000000      -0.09861214
2
Properties=species:S:1:pos:R:3:forces:R:3 energy=-6.324789213345847 pbc="F F F"
Nb       0.00000000       0.00000000       0.00000000       0.00000000       0.00000000       0.09310015
Nb       0.00000000       0.00000000       5.46363636       0.00000000       0.00000000      -0.09310015
2
Properties=species:S:1:pos:R:3:forces:R:3 energy=-6.319453727346764 pbc="F F F"
Nb       0.00000000       0.00000000       0.00000000       0.00000000       0.00000000       0.08574626
Nb       0.00000000       0.00000000       5.52323232       0.00000000       0.00000000      -0.08574626
2
Properties=species:S:1:pos:R:3:forces:R:3 energy=-6.314599177936081 pbc="F F F"
Nb       0.00000000       0.00000000       0.00000000       0.00000000       0.00000000       0.07695068
Nb       0.00000000       0.00000000       5.58282828       0.00000000       0.00000000      -0.07695068
2
Properties=species:S:1:pos:R:3:forces:R:3 energy=-6.310299504887702 pbc="F F F"
Nb       0.00000000       0.00000000       0.00000000       0.00000000       0.00000000       0.06727240
Nb       0.00000000       0.00000000       5.64242424       0.00000000       0.00000000      -0.06727240
2
Properties=species:S:1:pos:R:3:forces:R:3 energy=-6.3065851180738015 pbc="F F F"
Nb       0.00000000       0.00000000       0.00000000       0.00000000       0.00000000       0.05734207
Nb       0.00000000       0.00000000       5.70202020       0.00000000       0.00000000      -0.05734207
2
Properties=species:S:1:pos:R:3:forces:R:3 energy=-6.3034572247543155 pbc="F F F"
Nb       0.00000000       0.00000000       0.00000000       0.00000000       0.00000000       0.04780420
Nb       0.00000000       0.00000000       5.76161616       0.00000000       0.00000000      -0.04780420
2
Properties=species:S:1:pos:R:3:forces:R:3 energy=-6.300867821423238 pbc="F F F"
Nb       0.00000000       0.00000000       0.00000000       0.00000000       0.00000000       0.03926854
Nb       0.00000000       0.00000000       5.82121212       0.00000000       0.00000000      -0.03926854
2
Properties=species:S:1:pos:R:3:forces:R:3 energy=-6.298746586758804 pbc="F F F"
Nb       0.00000000       0.00000000       0.00000000       0.00000000       0.00000000       0.03227873
Nb       0.00000000       0.00000000       5.88080808       0.00000000       0.00000000      -0.03227873
2
Properties=species:S:1:pos:R:3:forces:R:3 energy=-6.296980361786577 pbc="F F F"
Nb       0.00000000       0.00000000       0.00000000       0.00000000       0.00000000       0.02729324
Nb       0.00000000       0.00000000       5.94040404       0.00000000       0.00000000      -0.02729324
2
Properties=species:S:1:pos:R:3:forces:R:3 energy=-6.295444741509136 pbc="F F F"
Nb       0.00000000       0.00000000       0.00000000       0.00000000       0.00000000       0.02468648
Nb       0.00000000       0.00000000       6.00000000       0.00000000       0.00000000      -0.02468648
