2
Properties=species:S:1:pos:R:3:forces:R:3 energy=3179.360081265237 pbc="F F F"
Ne       0.00000000       0.00000000       0.00000000       0.00000000       0.00000000  -63968.74609375
Ne       0.00000000       0.00000000       0.10000000       0.00000000       0.00000000   63968.74609375
2
Properties=species:S:1:pos:R:3:forces:R:3 energy=1136.6473127105496 pbc="F F F"
Ne       0.00000000       0.00000000       0.00000000       0.00000000       0.00000000  -17119.86523438
Ne       0.00000000       0.00000000       0.15959596       0.00000000       0.00000000   17119.86523438
2
Properties=species:S:1:pos:R:3:forces:R:3 energy=504.74914986875274 pbc="F F F"
Ne       0.00000000       0.00000000       0.00000000       0.00000000       0.00000000   -6265.75585938
Ne       0.00000000       0.00000000       0.21919192       0.00000000       0.00000000    6265.75585938
2
Properties=species:S:1:pos:R:3:forces:R:3 energy=253.68588693048753 pbc="F F F"
Ne       0.00000000       0.00000000       0.00000000       0.00000000       0.00000000   -2740.04663086
Ne       0.00000000       0.00000000       0.27878788       0.00000000       0.00000000    2740.04663086
2
Properties=species:S:1:pos:R:3:forces:R:3 energy=137.6350446484991 pbc="F F F"
Ne       0.00000000       0.00000000       0.00000000       0.00000000       0.00000000   -1349.07250977
Ne       0.00000000       0.00000000       0.33838384       0.00000000       0.00000000    1349.07250977
2
Properties=species:S:1:pos:R:3:forces:R:3 energy=78.23808725816575 pbc="F F F"
Ne       0.00000000       0.00000000       0.00000000       0.00000000       0.00000000    -720.59265137
Ne       0.00000000       0.00000000       0.39797980       0.00000000       0.00000000     720.59265137
2
Properties=species:S:1:pos:R:3:forces:R:3 energy=45.654907800523894 pbc="F F F"
Ne       0.00000000       0.00000000       0.00000000       0.00000000       0.00000000    -406.67492676
Ne       0.00000000       0.00000000       0.45757576       0.00000000       0.00000000     406.67492676
2
Properties=species:S:1:pos:R:3:forces:R:3 energy=26.941546090505895 pbc="F F F"
Ne       0.00000000       0.00000000       0.00000000       0.00000000       0.00000000    -237.79406738
Ne       0.00000000       0.00000000       0.51717172       0.00000000       0.00000000     237.79406738
2
Properties=species:S:1:pos:R:3:forces:R:3 energy=15.8844420336411 pbc="F F F"
Ne       0.00000000       0.00000000       0.00000000       0.00000000       0.00000000    -141.92127991
Ne       0.00000000       0.00000000       0.57676768       0.00000000       0.00000000     141.92127991
2
Properties=species:S:1:pos:R:3:forces:R:3 energy=9.25388220305536 pbc="F F F"
Ne       0.00000000       0.00000000       0.00000000       0.00000000       0.00000000     -85.41163635
Ne       0.00000000       0.00000000       0.63636364       0.00000000       0.00000000      85.41163635
2
Properties=species:S:1:pos:R:3:forces:R:3 energy=5.2645482419338885 pbc="F F F"
Ne       0.00000000       0.00000000       0.00000000       0.00000000       0.00000000     -51.27174759
Ne       0.00000000       0.00000000       0.69595960       0.00000000       0.00000000      51.27174759
2
Properties=species:S:1:pos:R:3:forces:R:3 energy=2.882499619182257 pbc="F F F"
Ne       0.00000000       0.00000000       0.00000000       0.00000000       0.00000000     -30.35540009
Ne       0.00000000       0.00000000       0.75555556       0.00000000       0.00000000      30.35540009
2
Properties=species:S:1:pos:R:3:forces:R:3 energy=1.487935560829132 pbc="F F F"
Ne       0.00000000       0.00000000       0.00000000       0.00000000       0.00000000     -17.48522758
Ne       0.00000000       0.00000000       0.81515152       0.00000000       0.00000000      17.48522758
2
Properties=species:S:1:pos:R:3:forces:R:3 energy=0.6998644083689335 pbc="F F F"
Ne       0.00000000       0.00000000       0.00000000       0.00000000       0.00000000      -9.61378479
Ne       0.00000000       0.00000000       0.87474747       0.00000000       0.00000000       9.61378479
2
Properties=species:S:1:pos:R:3:forces:R:3 energy=0.27989644985513573 pbc="F F F"
Ne       0.00000000       0.00000000       0.00000000       0.00000000       0.00000000      -4.89341402
Ne       0.00000000       0.00000000       0.93434343       0.00000000       0.00000000       4.89341402
2
Properties=species:S:1:pos:R:3:forces:R:3 energy=0.0770560573723389 pbc="F F F"
Ne       0.00000000       0.00000000       0.00000000       0.00000000       0.00000000      -2.17772341
Ne       0.00000000       0.00000000       0.99393939       0.00000000       0.00000000       2.17772341
2
Properties=species:S:1:pos:R:3:forces:R:3 energy=-0.004923079128761913 pbc="F F F"
Ne       0.00000000       0.00000000       0.00000000       0.00000000       0.00000000      -0.74190378
Ne       0.00000000       0.00000000       1.05353535       0.00000000       0.00000000       0.74190378
2
Properties=species:S:1:pos:R:3:forces:R:3 energy=-0.02743673362425279 pbc="F F F"
Ne       0.00000000       0.00000000       0.00000000       0.00000000       0.00000000      -0.11995856
Ne       0.00000000       0.00000000       1.11313131       0.00000000       0.00000000       0.11995856
2
Properties=species:S:1:pos:R:3:forces:R:3 energy=-0.02924455389207192 pbc="F F F"
Ne       0.00000000       0.00000000       0.00000000       0.00000000       0.00000000       0.00004218
Ne       0.00000000       0.00000000       1.17272727       0.00000000       0.00000000      -0.00004218
2
Properties=species:S:1:pos:R:3:forces:R:3 energy=-0.029241692952694548 pbc="F F F"
Ne       0.00000000       0.00000000       0.00000000       0.00000000       0.00000000       0.00005425
Ne       0.00000000       0.00000000       1.23232323       0.00000000       0.00000000      -0.00005425
2
Properties=species:S:1:pos:R:3:forces:R:3 energy=-0.0292380349100692 pbc="F F F"
Ne       0.00000000       0.00000000       0.00000000       0.00000000       0.00000000       0.00006896
Ne       0.00000000       0.00000000       1.29191919       0.00000000       0.00000000      -0.00006896
2
Properties=species:S:1:pos:R:3:forces:R:3 energy=-0.0292334122655998 pbc="F F F"
Ne       0.00000000       0.00000000       0.00000000       0.00000000       0.00000000       0.00008671
Ne       0.00000000       0.00000000       1.35151515       0.00000000       0.00000000      -0.00008671
2
Properties=species:S:1:pos:R:3:forces:R:3 energy=-0.02922763059420202 pbc="F F F"
Ne       0.00000000       0.00000000       0.00000000       0.00000000       0.00000000       0.00010793
Ne       0.00000000       0.00000000       1.41111111       0.00000000       0.00000000      -0.00010793
2
Properties=species:S:1:pos:R:3:forces:R:3 energy=-0.029220469336258804 pbc="F F F"
Ne       0.00000000       0.00000000       0.00000000       0.00000000       0.00000000       0.00013310
Ne       0.00000000       0.00000000       1.47070707       0.00000000       0.00000000      -0.00013310
2
Properties=species:S:1:pos:R:3:forces:R:3 energy=-0.029211679025776004 pbc="F F F"
Ne       0.00000000       0.00000000       0.00000000       0.00000000       0.00000000       0.00016269
Ne       0.00000000       0.00000000       1.53030303       0.00000000       0.00000000      -0.00016269
2
Properties=species:S:1:pos:R:3:forces:R:3 energy=-0.029200979706471297 pbc="F F F"
Ne       0.00000000       0.00000000       0.00000000       0.00000000       0.00000000       0.00019722
Ne       0.00000000       0.00000000       1.58989899       0.00000000       0.00000000      -0.00019722
2
Properties=species:S:1:pos:R:3:forces:R:3 energy=-0.029188063307640788 pbc="F F F"
Ne       0.00000000       0.00000000       0.00000000       0.00000000       0.00000000       0.00023720
Ne       0.00000000       0.00000000       1.64949495       0.00000000       0.00000000      -0.00023720
2
Properties=species:S:1:pos:R:3:forces:R:3 energy=-0.029172589288403578 pbc="F F F"
Ne       0.00000000       0.00000000       0.00000000       0.00000000       0.00000000       0.00028314
Ne       0.00000000       0.00000000       1.70909091       0.00000000       0.00000000      -0.00028314
2
Properties=species:S:1:pos:R:3:forces:R:3 energy=-0.029154187013568353 pbc="F F F"
Ne       0.00000000       0.00000000       0.00000000       0.00000000       0.00000000       0.00033553
Ne       0.00000000       0.00000000       1.76868687       0.00000000       0.00000000      -0.00033553
2
Properties=species:S:1:pos:R:3:forces:R:3 energy=-0.02913245931743332 pbc="F F F"
Ne       0.00000000       0.00000000       0.00000000       0.00000000       0.00000000       0.00039482
Ne       0.00000000       0.00000000       1.82828283       0.00000000       0.00000000      -0.00039482
2
Properties=species:S:1:pos:R:3:forces:R:3 energy=-0.029106983691719483 pbc="F F F"
Ne       0.00000000       0.00000000       0.00000000       0.00000000       0.00000000       0.00046138
Ne       0.00000000       0.00000000       1.88787879       0.00000000       0.00000000      -0.00046138
2
Properties=species:S:1:pos:R:3:forces:R:3 energy=-0.029077316641326144 pbc="F F F"
Ne       0.00000000       0.00000000       0.00000000       0.00000000       0.00000000       0.00053551
Ne       0.00000000       0.00000000       1.94747475       0.00000000       0.00000000      -0.00053551
2
Properties=species:S:1:pos:R:3:forces:R:3 energy=-0.029043001999863986 pbc="F F F"
Ne       0.00000000       0.00000000       0.00000000       0.00000000       0.00000000       0.00061737
Ne       0.00000000       0.00000000       2.00707071       0.00000000       0.00000000      -0.00061737
2
Properties=species:S:1:pos:R:3:forces:R:3 energy=-0.02900357766127718 pbc="F F F"
Ne       0.00000000       0.00000000       0.00000000       0.00000000       0.00000000       0.00070697
Ne       0.00000000       0.00000000       2.06666667       0.00000000       0.00000000      -0.00070697
2
Properties=species:S:1:pos:R:3:forces:R:3 energy=-0.02895858627124312 pbc="F F F"
Ne       0.00000000       0.00000000       0.00000000       0.00000000       0.00000000       0.00080414
Ne       0.00000000       0.00000000       2.12626263       0.00000000       0.00000000      -0.00080414
2
Properties=species:S:1:pos:R:3:forces:R:3 energy=-0.028907589086394306 pbc="F F F"
Ne       0.00000000       0.00000000       0.00000000       0.00000000       0.00000000       0.00090845
Ne       0.00000000       0.00000000       2.18585859       0.00000000       0.00000000      -0.00090845
2
Properties=species:S:1:pos:R:3:forces:R:3 energy=-0.02885017706169589 pbc="F F F"
Ne       0.00000000       0.00000000       0.00000000       0.00000000       0.00000000       0.00101925
Ne       0.00000000       0.00000000       2.24545455       0.00000000       0.00000000      -0.00101925
2
Properties=species:S:1:pos:R:3:forces:R:3 energy=-0.028785992233245152 pbc="F F F"
Ne       0.00000000       0.00000000       0.00000000       0.00000000       0.00000000       0.00113557
Ne       0.00000000       0.00000000       2.30505051       0.00000000       0.00000000      -0.00113557
2
Properties=species:S:1:pos:R:3:forces:R:3 energy=-0.028714741181515638 pbc="F F F"
Ne       0.00000000       0.00000000       0.00000000       0.00000000       0.00000000       0.00125615
Ne       0.00000000       0.00000000       2.36464646       0.00000000       0.00000000      -0.00125615
2
Properties=species:S:1:pos:R:3:forces:R:3 energy=-0.028636216810134427 pbc="F F F"
Ne       0.00000000       0.00000000       0.00000000       0.00000000       0.00000000       0.00137938
Ne       0.00000000       0.00000000       2.42424242       0.00000000       0.00000000      -0.00137938
2
Properties=species:S:1:pos:R:3:forces:R:3 energy=-0.028550314580970633 pbc="F F F"
Ne       0.00000000       0.00000000       0.00000000       0.00000000       0.00000000       0.00150339
Ne       0.00000000       0.00000000       2.48383838       0.00000000       0.00000000      -0.00150339
2
Properties=species:S:1:pos:R:3:forces:R:3 energy=-0.02845705191704607 pbc="F F F"
Ne       0.00000000       0.00000000       0.00000000       0.00000000       0.00000000       0.00162599
Ne       0.00000000       0.00000000       2.54343434       0.00000000       0.00000000      -0.00162599
2
Properties=species:S:1:pos:R:3:forces:R:3 energy=-0.0283565852295793 pbc="F F F"
Ne       0.00000000       0.00000000       0.00000000       0.00000000       0.00000000       0.00174477
Ne       0.00000000       0.00000000       2.60303030       0.00000000       0.00000000      -0.00174477
2
Properties=species:S:1:pos:R:3:forces:R:3 energy=-0.028249215857652138 pbc="F F F"
Ne       0.00000000       0.00000000       0.00000000       0.00000000       0.00000000       0.00185720
Ne       0.00000000       0.00000000       2.66262626       0.00000000       0.00000000      -0.00185720
2
Properties=species:S:1:pos:R:3:forces:R:3 energy=-0.02813540036363166 pbc="F F F"
Ne       0.00000000       0.00000000       0.00000000       0.00000000       0.00000000       0.00196065
Ne       0.00000000       0.00000000       2.72222222       0.00000000       0.00000000      -0.00196065
2
Properties=species:S:1:pos:R:3:forces:R:3 energy=-0.028015750533170194 pbc="F F F"
Ne       0.00000000       0.00000000       0.00000000       0.00000000       0.00000000       0.00205261
Ne       0.00000000       0.00000000       2.78181818       0.00000000       0.00000000      -0.00205261
2
Properties=species:S:1:pos:R:3:forces:R:3 energy=-0.027891020307938948 pbc="F F F"
Ne       0.00000000       0.00000000       0.00000000       0.00000000       0.00000000       0.00213077
Ne       0.00000000       0.00000000       2.84141414       0.00000000       0.00000000      -0.00213077
2
Properties=species:S:1:pos:R:3:forces:R:3 energy=-0.027762094896239393 pbc="F F F"
Ne       0.00000000       0.00000000       0.00000000       0.00000000       0.00000000       0.00219314
Ne       0.00000000       0.00000000       2.90101010       0.00000000       0.00000000      -0.00219314
2
Properties=species:S:1:pos:R:3:forces:R:3 energy=-0.027629959688748422 pbc="F F F"
Ne       0.00000000       0.00000000       0.00000000       0.00000000       0.00000000       0.00223824
Ne       0.00000000       0.00000000       2.96060606       0.00000000       0.00000000      -0.00223824
2
Properties=species:S:1:pos:R:3:forces:R:3 energy=-0.02749567689583003 pbc="F F F"
Ne       0.00000000       0.00000000       0.00000000       0.00000000       0.00000000       0.00226513
Ne       0.00000000       0.00000000       3.02020202       0.00000000       0.00000000      -0.00226513
2
Properties=species:S:1:pos:R:3:forces:R:3 energy=-0.027360343573891815 pbc="F F F"
Ne       0.00000000       0.00000000       0.00000000       0.00000000       0.00000000       0.00227348
Ne       0.00000000       0.00000000       3.07979798       0.00000000       0.00000000      -0.00227348
2
Properties=species:S:1:pos:R:3:forces:R:3 energy=-0.02722505895721913 pbc="F F F"
Ne       0.00000000       0.00000000       0.00000000       0.00000000       0.00000000       0.00226360
Ne       0.00000000       0.00000000       3.13939394       0.00000000       0.00000000      -0.00226360
2
Properties=species:S:1:pos:R:3:forces:R:3 energy=-0.027090884860198186 pbc="F F F"
Ne       0.00000000       0.00000000       0.00000000       0.00000000       0.00000000       0.00223641
Ne       0.00000000       0.00000000       3.19898990       0.00000000       0.00000000      -0.00223641
2
Properties=species:S:1:pos:R:3:forces:R:3 energy=-0.026958812613172407 pbc="F F F"
Ne       0.00000000       0.00000000       0.00000000       0.00000000       0.00000000       0.00219332
Ne       0.00000000       0.00000000       3.25858586       0.00000000       0.00000000      -0.00219332
2
Properties=species:S:1:pos:R:3:forces:R:3 energy=-0.02682973890779855 pbc="F F F"
Ne       0.00000000       0.00000000       0.00000000       0.00000000       0.00000000       0.00213613
Ne       0.00000000       0.00000000       3.31818182       0.00000000       0.00000000      -0.00213613
2
Properties=species:S:1:pos:R:3:forces:R:3 energy=-0.026704441246425053 pbc="F F F"
Ne       0.00000000       0.00000000       0.00000000       0.00000000       0.00000000       0.00206695
Ne       0.00000000       0.00000000       3.37777778       0.00000000       0.00000000      -0.00206695
2
Properties=species:S:1:pos:R:3:forces:R:3 energy=-0.026583570418514432 pbc="F F F"
Ne       0.00000000       0.00000000       0.00000000       0.00000000       0.00000000       0.00198799
Ne       0.00000000       0.00000000       3.43737374       0.00000000       0.00000000      -0.00198799
2
Properties=species:S:1:pos:R:3:forces:R:3 energy=-0.026467639413265777 pbc="F F F"
Ne       0.00000000       0.00000000       0.00000000       0.00000000       0.00000000       0.00190150
Ne       0.00000000       0.00000000       3.49696970       0.00000000       0.00000000      -0.00190150
2
Properties=species:S:1:pos:R:3:forces:R:3 energy=-0.02635703262609785 pbc="F F F"
Ne       0.00000000       0.00000000       0.00000000       0.00000000       0.00000000       0.00180965
Ne       0.00000000       0.00000000       3.55656566       0.00000000       0.00000000      -0.00180965
2
Properties=species:S:1:pos:R:3:forces:R:3 energy=-0.026252009620437902 pbc="F F F"
Ne       0.00000000       0.00000000       0.00000000       0.00000000       0.00000000       0.00171445
Ne       0.00000000       0.00000000       3.61616162       0.00000000       0.00000000      -0.00171445
2
Properties=species:S:1:pos:R:3:forces:R:3 energy=-0.026152715324149197 pbc="F F F"
Ne       0.00000000       0.00000000       0.00000000       0.00000000       0.00000000       0.00161768
Ne       0.00000000       0.00000000       3.67575758       0.00000000       0.00000000      -0.00161768
2
Properties=species:S:1:pos:R:3:forces:R:3 energy=-0.026059195472664 pbc="F F F"
Ne       0.00000000       0.00000000       0.00000000       0.00000000       0.00000000       0.00152089
Ne       0.00000000       0.00000000       3.73535354       0.00000000       0.00000000      -0.00152089
2
Properties=species:S:1:pos:R:3:forces:R:3 energy=-0.025971411755133206 pbc="F F F"
Ne       0.00000000       0.00000000       0.00000000       0.00000000       0.00000000       0.00142537
Ne       0.00000000       0.00000000       3.79494949       0.00000000       0.00000000      -0.00142537
2
Properties=species:S:1:pos:R:3:forces:R:3 energy=-0.025889257158564882 pbc="F F F"
Ne       0.00000000       0.00000000       0.00000000       0.00000000       0.00000000       0.00133215
Ne       0.00000000       0.00000000       3.85454545       0.00000000       0.00000000      -0.00133215
2
Properties=species:S:1:pos:R:3:forces:R:3 energy=-0.02581256873810729 pbc="F F F"
Ne       0.00000000       0.00000000       0.00000000       0.00000000       0.00000000       0.00124204
Ne       0.00000000       0.00000000       3.91414141       0.00000000       0.00000000      -0.00124204
2
Properties=species:S:1:pos:R:3:forces:R:3 energy=-0.025741141971243008 pbc="F F F"
Ne       0.00000000       0.00000000       0.00000000       0.00000000       0.00000000       0.00115565
Ne       0.00000000       0.00000000       3.97373737       0.00000000       0.00000000      -0.00115565
2
Properties=species:S:1:pos:R:3:forces:R:3 energy=-0.025674742934105294 pbc="F F F"
Ne       0.00000000       0.00000000       0.00000000       0.00000000       0.00000000       0.00107337
Ne       0.00000000       0.00000000       4.03333333       0.00000000       0.00000000      -0.00107337
2
Properties=species:S:1:pos:R:3:forces:R:3 energy=-0.025613117012989007 pbc="F F F"
Ne       0.00000000       0.00000000       0.00000000       0.00000000       0.00000000       0.00099549
Ne       0.00000000       0.00000000       4.09292929       0.00000000       0.00000000      -0.00099549
2
Properties=species:S:1:pos:R:3:forces:R:3 energy=-0.02555599845731427 pbc="F F F"
Ne       0.00000000       0.00000000       0.00000000       0.00000000       0.00000000       0.00092213
Ne       0.00000000       0.00000000       4.15252525       0.00000000       0.00000000      -0.00092213
2
Properties=species:S:1:pos:R:3:forces:R:3 energy=-0.02550311661627631 pbc="F F F"
Ne       0.00000000       0.00000000       0.00000000       0.00000000       0.00000000       0.00085332
Ne       0.00000000       0.00000000       4.21212121       0.00000000       0.00000000      -0.00085332
2
Properties=species:S:1:pos:R:3:forces:R:3 energy=-0.025454200938064806 pbc="F F F"
Ne       0.00000000       0.00000000       0.00000000       0.00000000       0.00000000       0.00078901
Ne       0.00000000       0.00000000       4.27171717       0.00000000       0.00000000      -0.00078901
2
Properties=species:S:1:pos:R:3:forces:R:3 energy=-0.025408986216569316 pbc="F F F"
Ne       0.00000000       0.00000000       0.00000000       0.00000000       0.00000000       0.00072909
Ne       0.00000000       0.00000000       4.33131313       0.00000000       0.00000000      -0.00072909
2
Properties=species:S:1:pos:R:3:forces:R:3 energy=-0.02536721516523475 pbc="F F F"
Ne       0.00000000       0.00000000       0.00000000       0.00000000       0.00000000       0.00067341
Ne       0.00000000       0.00000000       4.39090909       0.00000000       0.00000000      -0.00067341
2
Properties=species:S:1:pos:R:3:forces:R:3 energy=-0.02532864084242524 pbc="F F F"
Ne       0.00000000       0.00000000       0.00000000       0.00000000       0.00000000       0.00062177
Ne       0.00000000       0.00000000       4.45050505       0.00000000       0.00000000      -0.00062177
2
Properties=species:S:1:pos:R:3:forces:R:3 energy=-0.025293028383826844 pbc="F F F"
Ne       0.00000000       0.00000000       0.00000000       0.00000000       0.00000000       0.00057399
Ne       0.00000000       0.00000000       4.51010101       0.00000000       0.00000000      -0.00057399
2
Properties=species:S:1:pos:R:3:forces:R:3 energy=-0.02526015440848091 pbc="F F F"
Ne       0.00000000       0.00000000       0.00000000       0.00000000       0.00000000       0.00052982
Ne       0.00000000       0.00000000       4.56969697       0.00000000       0.00000000      -0.00052982
2
Properties=species:S:1:pos:R:3:forces:R:3 energy=-0.02522981021135483 pbc="F F F"
Ne       0.00000000       0.00000000       0.00000000       0.00000000       0.00000000       0.00048906
Ne       0.00000000       0.00000000       4.62929293       0.00000000       0.00000000      -0.00048906
2
Properties=species:S:1:pos:R:3:forces:R:3 energy=-0.025201799634961542 pbc="F F F"
Ne       0.00000000       0.00000000       0.00000000       0.00000000       0.00000000       0.00045147
Ne       0.00000000       0.00000000       4.68888889       0.00000000       0.00000000      -0.00045147
2
Properties=species:S:1:pos:R:3:forces:R:3 energy=-0.025175940356287257 pbc="F F F"
Ne       0.00000000       0.00000000       0.00000000       0.00000000       0.00000000       0.00041684
Ne       0.00000000       0.00000000       4.74848485       0.00000000       0.00000000      -0.00041684
2
Properties=species:S:1:pos:R:3:forces:R:3 energy=-0.025152061832656815 pbc="F F F"
Ne       0.00000000       0.00000000       0.00000000       0.00000000       0.00000000       0.00038495
Ne       0.00000000       0.00000000       4.80808081       0.00000000       0.00000000      -0.00038495
2
Properties=species:S:1:pos:R:3:forces:R:3 energy=-0.02513000700938778 pbc="F F F"
Ne       0.00000000       0.00000000       0.00000000       0.00000000       0.00000000       0.00035560
Ne       0.00000000       0.00000000       4.86767677       0.00000000       0.00000000      -0.00035560
2
Properties=species:S:1:pos:R:3:forces:R:3 energy=-0.025109630438896066 pbc="F F F"
Ne       0.00000000       0.00000000       0.00000000       0.00000000       0.00000000       0.00032860
Ne       0.00000000       0.00000000       4.92727273       0.00000000       0.00000000      -0.00032860
2
Properties=species:S:1:pos:R:3:forces:R:3 energy=-0.025090797538237605 pbc="F F F"
Ne       0.00000000       0.00000000       0.00000000       0.00000000       0.00000000       0.00030376
Ne       0.00000000       0.00000000       4.98686869       0.00000000       0.00000000      -0.00030376
2
Properties=species:S:1:pos:R:3:forces:R:3 energy=-0.025073384836594458 pbc="F F F"
Ne       0.00000000       0.00000000       0.00000000       0.00000000       0.00000000       0.00028092
Ne       0.00000000       0.00000000       5.04646465       0.00000000       0.00000000      -0.00028092
2
Properties=species:S:1:pos:R:3:forces:R:3 energy=-0.025057277945888752 pbc="F F F"
Ne       0.00000000       0.00000000       0.00000000       0.00000000       0.00000000       0.00025991
Ne       0.00000000       0.00000000       5.10606061       0.00000000       0.00000000      -0.00025991
2
Properties=species:S:1:pos:R:3:forces:R:3 energy=-0.025042372253743773 pbc="F F F"
Ne       0.00000000       0.00000000       0.00000000       0.00000000       0.00000000       0.00024058
Ne       0.00000000       0.00000000       5.16565657       0.00000000       0.00000000      -0.00024058
2
Properties=species:S:1:pos:R:3:forces:R:3 energy=-0.025028571673679133 pbc="F F F"
Ne       0.00000000       0.00000000       0.00000000       0.00000000       0.00000000       0.00022280
Ne       0.00000000       0.00000000       5.22525253       0.00000000       0.00000000      -0.00022280
2
Properties=species:S:1:pos:R:3:forces:R:3 energy=-0.025015787568546218 pbc="F F F"
Ne       0.00000000       0.00000000       0.00000000       0.00000000       0.00000000       0.00020645
Ne       0.00000000       0.00000000       5.28484848       0.00000000       0.00000000      -0.00020645
2
Properties=species:S:1:pos:R:3:forces:R:3 energy=-0.025003939035137205 pbc="F F F"
Ne       0.00000000       0.00000000       0.00000000       0.00000000       0.00000000       0.00019139
Ne       0.00000000       0.00000000       5.34444444       0.00000000       0.00000000      -0.00019139
2
Properties=species:S:1:pos:R:3:forces:R:3 energy=-0.02499295162963161 pbc="F F F"
Ne       0.00000000       0.00000000       0.00000000       0.00000000       0.00000000       0.00017753
Ne       0.00000000       0.00000000       5.40404040       0.00000000       0.00000000      -0.00017753
2
Properties=species:S:1:pos:R:3:forces:R:3 energy=-0.024982757169607427 pbc="F F F"
Ne       0.00000000       0.00000000       0.00000000       0.00000000       0.00000000       0.00016476
Ne       0.00000000       0.00000000       5.46363636       0.00000000       0.00000000      -0.00016476
2
Properties=species:S:1:pos:R:3:forces:R:3 energy=-0.02497329311532584 pbc="F F F"
Ne       0.00000000       0.00000000       0.00000000       0.00000000       0.00000000       0.00015300
Ne       0.00000000       0.00000000       5.52323232       0.00000000       0.00000000      -0.00015300
2
Properties=species:S:1:pos:R:3:forces:R:3 energy=-0.0249645022479993 pbc="F F F"
Ne       0.00000000       0.00000000       0.00000000       0.00000000       0.00000000       0.00014216
Ne       0.00000000       0.00000000       5.58282828       0.00000000       0.00000000      -0.00014216
2
Properties=species:S:1:pos:R:3:forces:R:3 energy=-0.02495633186546169 pbc="F F F"
Ne       0.00000000       0.00000000       0.00000000       0.00000000       0.00000000       0.00013217
Ne       0.00000000       0.00000000       5.64242424       0.00000000       0.00000000      -0.00013217
2
Properties=species:S:1:pos:R:3:forces:R:3 energy=-0.024948733806916912 pbc="F F F"
Ne       0.00000000       0.00000000       0.00000000       0.00000000       0.00000000       0.00012294
Ne       0.00000000       0.00000000       5.70202020       0.00000000       0.00000000      -0.00012294
2
Properties=species:S:1:pos:R:3:forces:R:3 energy=-0.02494166394559239 pbc="F F F"
Ne       0.00000000       0.00000000       0.00000000       0.00000000       0.00000000       0.00011443
Ne       0.00000000       0.00000000       5.76161616       0.00000000       0.00000000      -0.00011443
2
Properties=species:S:1:pos:R:3:forces:R:3 energy=-0.024935081638082474 pbc="F F F"
Ne       0.00000000       0.00000000       0.00000000       0.00000000       0.00000000       0.00010657
Ne       0.00000000       0.00000000       5.82121212       0.00000000       0.00000000      -0.00010657
2
Properties=species:S:1:pos:R:3:forces:R:3 energy=-0.024928949749097068 pbc="F F F"
Ne       0.00000000       0.00000000       0.00000000       0.00000000       0.00000000       0.00009931
Ne       0.00000000       0.00000000       5.88080808       0.00000000       0.00000000      -0.00009931
2
Properties=species:S:1:pos:R:3:forces:R:3 energy=-0.02492323405130781 pbc="F F F"
Ne       0.00000000       0.00000000       0.00000000       0.00000000       0.00000000       0.00009259
Ne       0.00000000       0.00000000       5.94040404       0.00000000       0.00000000      -0.00009259
2
Properties=species:S:1:pos:R:3:forces:R:3 energy=-0.02491790322534807 pbc="F F F"
Ne       0.00000000       0.00000000       0.00000000       0.00000000       0.00000000       0.00008638
Ne       0.00000000       0.00000000       6.00000000       0.00000000       0.00000000      -0.00008638
