2
Properties=species:S:1:pos:R:3:forces:R:3 energy=116193.51045072352 pbc="F F F"
Np       0.00000000       0.00000000       0.00000000       0.00000000       0.00000000 -3009308.50000000
Np       0.00000000       0.00000000       0.10000000       0.00000000       0.00000000 3009308.50000000
2
Properties=species:S:1:pos:R:3:forces:R:3 energy=30914.00263822352 pbc="F F F"
Np       0.00000000       0.00000000       0.00000000       0.00000000       0.00000000 -599778.12500000
Np       0.00000000       0.00000000       0.15959596       0.00000000       0.00000000  599778.12500000
2
Properties=species:S:1:pos:R:3:forces:R:3 energy=10793.24580228602 pbc="F F F"
Np       0.00000000       0.00000000       0.00000000       0.00000000       0.00000000 -175257.75000000
Np       0.00000000       0.00000000       0.21919192       0.00000000       0.00000000  175257.75000000
2
Properties=species:S:1:pos:R:3:forces:R:3 energy=4352.69697416102 pbc="F F F"
Np       0.00000000       0.00000000       0.00000000       0.00000000       0.00000000  -62548.43750000
Np       0.00000000       0.00000000       0.27878788       0.00000000       0.00000000   62548.43750000
2
Properties=species:S:1:pos:R:3:forces:R:3 energy=1926.0257095125824 pbc="F F F"
Np       0.00000000       0.00000000       0.00000000       0.00000000       0.00000000  -25143.04882812
Np       0.00000000       0.00000000       0.33838384       0.00000000       0.00000000   25143.04882812
2
Properties=species:S:1:pos:R:3:forces:R:3 energy=912.9669936922699 pbc="F F F"
Np       0.00000000       0.00000000       0.00000000       0.00000000       0.00000000  -10992.46191406
Np       0.00000000       0.00000000       0.39797980       0.00000000       0.00000000   10992.46191406
2
Properties=species:S:1:pos:R:3:forces:R:3 energy=456.3375076082855 pbc="F F F"
Np       0.00000000       0.00000000       0.00000000       0.00000000       0.00000000   -5144.64404297
Np       0.00000000       0.00000000       0.45757576       0.00000000       0.00000000    5144.64404297
2
Properties=species:S:1:pos:R:3:forces:R:3 energy=236.87322845882338 pbc="F F F"
Np       0.00000000       0.00000000       0.00000000       0.00000000       0.00000000   -2554.03686523
Np       0.00000000       0.00000000       0.51717172       0.00000000       0.00000000    2554.03686523
2
Properties=species:S:1:pos:R:3:forces:R:3 energy=125.33289950467376 pbc="F F F"
Np       0.00000000       0.00000000       0.00000000       0.00000000       0.00000000   -1334.95336914
Np       0.00000000       0.00000000       0.57676768       0.00000000       0.00000000    1334.95336914
2
Properties=species:S:1:pos:R:3:forces:R:3 energy=65.83094641768763 pbc="F F F"
Np       0.00000000       0.00000000       0.00000000       0.00000000       0.00000000    -729.28717041
Np       0.00000000       0.00000000       0.63636364       0.00000000       0.00000000     729.28717041
2
Properties=species:S:1:pos:R:3:forces:R:3 energy=32.75542693194778 pbc="F F F"
Np       0.00000000       0.00000000       0.00000000       0.00000000       0.00000000    -413.55664062
Np       0.00000000       0.00000000       0.69595960       0.00000000       0.00000000     413.55664062
2
Properties=species:S:1:pos:R:3:forces:R:3 energy=13.717925710845336 pbc="F F F"
Np       0.00000000       0.00000000       0.00000000       0.00000000       0.00000000    -242.15447998
Np       0.00000000       0.00000000       0.75555556       0.00000000       0.00000000     242.15447998
2
Properties=species:S:1:pos:R:3:forces:R:3 energy=2.415956360045133 pbc="F F F"
Np       0.00000000       0.00000000       0.00000000       0.00000000       0.00000000    -146.15631104
Np       0.00000000       0.00000000       0.81515152       0.00000000       0.00000000     146.15631104
2
Properties=species:S:1:pos:R:3:forces:R:3 energy=-4.5101336396789 pbc="F F F"
Np       0.00000000       0.00000000       0.00000000       0.00000000       0.00000000     -91.31530762
Np       0.00000000       0.00000000       0.87474747       0.00000000       0.00000000      91.31530762
2
Properties=species:S:1:pos:R:3:forces:R:3 energy=-8.926234753242584 pbc="F F F"
Np       0.00000000       0.00000000       0.00000000       0.00000000       0.00000000     -59.79198456
Np       0.00000000       0.00000000       0.93434343       0.00000000       0.00000000      59.79198456
2
Properties=species:S:1:pos:R:3:forces:R:3 energy=-11.904469516484594 pbc="F F F"
Np       0.00000000       0.00000000       0.00000000       0.00000000       0.00000000     -41.87416458
Np       0.00000000       0.00000000       0.99393939       0.00000000       0.00000000      41.87416458
2
Properties=species:S:1:pos:R:3:forces:R:3 energy=-14.077002859201512 pbc="F F F"
Np       0.00000000       0.00000000       0.00000000       0.00000000       0.00000000     -32.06043243
Np       0.00000000       0.00000000       1.05353535       0.00000000       0.00000000      32.06043243
2
Properties=species:S:1:pos:R:3:forces:R:3 energy=-15.817401345539338 pbc="F F F"
Np       0.00000000       0.00000000       0.00000000       0.00000000       0.00000000     -26.86317444
Np       0.00000000       0.00000000       1.11313131       0.00000000       0.00000000      26.86317444
2
Properties=species:S:1:pos:R:3:forces:R:3 energy=-17.307854866219166 pbc="F F F"
Np       0.00000000       0.00000000       0.00000000       0.00000000       0.00000000     -23.11634254
Np       0.00000000       0.00000000       1.17272727       0.00000000       0.00000000      23.11634254
2
Properties=species:S:1:pos:R:3:forces:R:3 energy=-18.54074828113934 pbc="F F F"
Np       0.00000000       0.00000000       0.00000000       0.00000000       0.00000000     -17.84912872
Np       0.00000000       0.00000000       1.23232323       0.00000000       0.00000000      17.84912872
2
Properties=species:S:1:pos:R:3:forces:R:3 energy=-19.385596907935895 pbc="F F F"
Np       0.00000000       0.00000000       0.00000000       0.00000000       0.00000000     -10.13134575
Np       0.00000000       0.00000000       1.29191919       0.00000000       0.00000000      10.13134575
2
Properties=species:S:1:pos:R:3:forces:R:3 energy=-19.719031453662154 pbc="F F F"
Np       0.00000000       0.00000000       0.00000000       0.00000000       0.00000000      -1.03303397
Np       0.00000000       0.00000000       1.35151515       0.00000000       0.00000000       1.03303397
2
Properties=species:S:1:pos:R:3:forces:R:3 energy=-19.54238310827965 pbc="F F F"
Np       0.00000000       0.00000000       0.00000000       0.00000000       0.00000000       6.42539501
Np       0.00000000       0.00000000       1.41111111       0.00000000       0.00000000      -6.42539501
2
Properties=species:S:1:pos:R:3:forces:R:3 energy=-19.026035236458505 pbc="F F F"
Np       0.00000000       0.00000000       0.00000000       0.00000000       0.00000000      10.32178020
Np       0.00000000       0.00000000       1.47070707       0.00000000       0.00000000     -10.32178020
2
Properties=species:S:1:pos:R:3:forces:R:3 energy=-18.366909975718055 pbc="F F F"
Np       0.00000000       0.00000000       0.00000000       0.00000000       0.00000000      11.47510433
Np       0.00000000       0.00000000       1.53030303       0.00000000       0.00000000     -11.47510433
2
Properties=species:S:1:pos:R:3:forces:R:3 energy=-17.68438049553604 pbc="F F F"
Np       0.00000000       0.00000000       0.00000000       0.00000000       0.00000000      11.27783298
Np       0.00000000       0.00000000       1.58989899       0.00000000       0.00000000     -11.27783298
2
Properties=species:S:1:pos:R:3:forces:R:3 energy=-17.03788719329353 pbc="F F F"
Np       0.00000000       0.00000000       0.00000000       0.00000000       0.00000000      10.30286407
Np       0.00000000       0.00000000       1.64949495       0.00000000       0.00000000     -10.30286407
2
Properties=species:S:1:pos:R:3:forces:R:3 energy=-16.46894138922314 pbc="F F F"
Np       0.00000000       0.00000000       0.00000000       0.00000000       0.00000000       8.69716835
Np       0.00000000       0.00000000       1.70909091       0.00000000       0.00000000      -8.69716835
2
Properties=species:S:1:pos:R:3:forces:R:3 energy=-16.01031968782225 pbc="F F F"
Np       0.00000000       0.00000000       0.00000000       0.00000000       0.00000000       6.63867617
Np       0.00000000       0.00000000       1.76868687       0.00000000       0.00000000      -6.63867617
2
Properties=species:S:1:pos:R:3:forces:R:3 energy=-15.68098275041001 pbc="F F F"
Np       0.00000000       0.00000000       0.00000000       0.00000000       0.00000000       4.41871119
Np       0.00000000       0.00000000       1.82828283       0.00000000       0.00000000      -4.41871119
2
Properties=species:S:1:pos:R:3:forces:R:3 energy=-15.478307668505373 pbc="F F F"
Np       0.00000000       0.00000000       0.00000000       0.00000000       0.00000000       2.46726871
Np       0.00000000       0.00000000       1.88787879       0.00000000       0.00000000      -2.46726871
2
Properties=species:S:1:pos:R:3:forces:R:3 energy=-15.373785875629352 pbc="F F F"
Np       0.00000000       0.00000000       0.00000000       0.00000000       0.00000000       1.15955019
Np       0.00000000       0.00000000       1.94747475       0.00000000       0.00000000      -1.15955019
2
Properties=species:S:1:pos:R:3:forces:R:3 energy=-15.327591564861452 pbc="F F F"
Np       0.00000000       0.00000000       0.00000000       0.00000000       0.00000000       0.47271863
Np       0.00000000       0.00000000       2.00707071       0.00000000       0.00000000      -0.47271863
2
Properties=species:S:1:pos:R:3:forces:R:3 energy=-15.310596205389288 pbc="F F F"
Np       0.00000000       0.00000000       0.00000000       0.00000000       0.00000000       0.13385735
Np       0.00000000       0.00000000       2.06666667       0.00000000       0.00000000      -0.13385735
2
Properties=species:S:1:pos:R:3:forces:R:3 energy=-15.309065451873328 pbc="F F F"
Np       0.00000000       0.00000000       0.00000000       0.00000000       0.00000000      -0.07165213
Np       0.00000000       0.00000000       2.12626263       0.00000000       0.00000000       0.07165213
2
Properties=species:S:1:pos:R:3:forces:R:3 energy=-15.31859658613234 pbc="F F F"
Np       0.00000000       0.00000000       0.00000000       0.00000000       0.00000000      -0.24789543
Np       0.00000000       0.00000000       2.18585859       0.00000000       0.00000000       0.24789543
2
Properties=species:S:1:pos:R:3:forces:R:3 energy=-15.33882661637553 pbc="F F F"
Np       0.00000000       0.00000000       0.00000000       0.00000000       0.00000000      -0.43396515
Np       0.00000000       0.00000000       2.24545455       0.00000000       0.00000000       0.43396515
2
Properties=species:S:1:pos:R:3:forces:R:3 energy=-15.370683762480065 pbc="F F F"
Np       0.00000000       0.00000000       0.00000000       0.00000000       0.00000000      -0.63771898
Np       0.00000000       0.00000000       2.30505051       0.00000000       0.00000000       0.63771898
2
Properties=species:S:1:pos:R:3:forces:R:3 energy=-15.415023689047345 pbc="F F F"
Np       0.00000000       0.00000000       0.00000000       0.00000000       0.00000000      -0.85051346
Np       0.00000000       0.00000000       2.36464646       0.00000000       0.00000000       0.85051346
2
Properties=species:S:1:pos:R:3:forces:R:3 energy=-15.471885626764898 pbc="F F F"
Np       0.00000000       0.00000000       0.00000000       0.00000000       0.00000000      -1.05457330
Np       0.00000000       0.00000000       2.42424242       0.00000000       0.00000000       1.05457330
2
Properties=species:S:1:pos:R:3:forces:R:3 energy=-15.540148133992034 pbc="F F F"
Np       0.00000000       0.00000000       0.00000000       0.00000000       0.00000000      -1.22998500
Np       0.00000000       0.00000000       2.48383838       0.00000000       0.00000000       1.22998500
2
Properties=species:S:1:pos:R:3:forces:R:3 energy=-15.617615868451347 pbc="F F F"
Np       0.00000000       0.00000000       0.00000000       0.00000000       0.00000000      -1.36171651
Np       0.00000000       0.00000000       2.54343434       0.00000000       0.00000000       1.36171651
2
Properties=species:S:1:pos:R:3:forces:R:3 energy=-15.701464902449322 pbc="F F F"
Np       0.00000000       0.00000000       0.00000000       0.00000000       0.00000000      -1.44408143
Np       0.00000000       0.00000000       2.60303030       0.00000000       0.00000000       1.44408143
2
Properties=species:S:1:pos:R:3:forces:R:3 energy=-15.788820611498208 pbc="F F F"
Np       0.00000000       0.00000000       0.00000000       0.00000000       0.00000000      -1.48037767
Np       0.00000000       0.00000000       2.66262626       0.00000000       0.00000000       1.48037767
2
Properties=species:S:1:pos:R:3:forces:R:3 energy=-15.877145043486529 pbc="F F F"
Np       0.00000000       0.00000000       0.00000000       0.00000000       0.00000000      -1.47786772
Np       0.00000000       0.00000000       2.72222222       0.00000000       0.00000000       1.47786772
2
Properties=species:S:1:pos:R:3:forces:R:3 energy=-15.964294877400466 pbc="F F F"
Np       0.00000000       0.00000000       0.00000000       0.00000000       0.00000000      -1.44109094
Np       0.00000000       0.00000000       2.78181818       0.00000000       0.00000000       1.44109094
2
Properties=species:S:1:pos:R:3:forces:R:3 energy=-16.04818396200003 pbc="F F F"
Np       0.00000000       0.00000000       0.00000000       0.00000000       0.00000000      -1.36734116
Np       0.00000000       0.00000000       2.84141414       0.00000000       0.00000000       1.36734116
2
Properties=species:S:1:pos:R:3:forces:R:3 energy=-16.126346418940564 pbc="F F F"
Np       0.00000000       0.00000000       0.00000000       0.00000000       0.00000000      -1.24699199
Np       0.00000000       0.00000000       2.90101010       0.00000000       0.00000000       1.24699199
2
Properties=species:S:1:pos:R:3:forces:R:3 energy=-16.19565824590005 pbc="F F F"
Np       0.00000000       0.00000000       0.00000000       0.00000000       0.00000000      -1.06866002
Np       0.00000000       0.00000000       2.96060606       0.00000000       0.00000000       1.06866002
2
Properties=species:S:1:pos:R:3:forces:R:3 energy=-16.252455546851795 pbc="F F F"
Np       0.00000000       0.00000000       0.00000000       0.00000000       0.00000000      -0.82702857
Np       0.00000000       0.00000000       3.02020202       0.00000000       0.00000000       0.82702857
2
Properties=species:S:1:pos:R:3:forces:R:3 energy=-16.29310954699207 pbc="F F F"
Np       0.00000000       0.00000000       0.00000000       0.00000000       0.00000000      -0.52931696
Np       0.00000000       0.00000000       3.07979798       0.00000000       0.00000000       0.52931696
2
Properties=species:S:1:pos:R:3:forces:R:3 energy=-16.31484691737895 pbc="F F F"
Np       0.00000000       0.00000000       0.00000000       0.00000000       0.00000000      -0.19675046
Np       0.00000000       0.00000000       3.13939394       0.00000000       0.00000000       0.19675046
2
Properties=species:S:1:pos:R:3:forces:R:3 energy=-16.31647712432483 pbc="F F F"
Np       0.00000000       0.00000000       0.00000000       0.00000000       0.00000000       0.14000465
Np       0.00000000       0.00000000       3.19898990       0.00000000       0.00000000      -0.14000465
2
Properties=species:S:1:pos:R:3:forces:R:3 energy=-16.29872081014346 pbc="F F F"
Np       0.00000000       0.00000000       0.00000000       0.00000000       0.00000000       0.44873989
Np       0.00000000       0.00000000       3.25858586       0.00000000       0.00000000      -0.44873989
2
Properties=species:S:1:pos:R:3:forces:R:3 energy=-16.264081734694503 pbc="F F F"
Np       0.00000000       0.00000000       0.00000000       0.00000000       0.00000000       0.70285392
Np       0.00000000       0.00000000       3.31818182       0.00000000       0.00000000      -0.70285392
2
Properties=species:S:1:pos:R:3:forces:R:3 energy=-16.216374006348364 pbc="F F F"
Np       0.00000000       0.00000000       0.00000000       0.00000000       0.00000000       0.88544476
Np       0.00000000       0.00000000       3.37777778       0.00000000       0.00000000      -0.88544476
2
Properties=species:S:1:pos:R:3:forces:R:3 energy=-16.160094298188938 pbc="F F F"
Np       0.00000000       0.00000000       0.00000000       0.00000000       0.00000000       0.99041927
Np       0.00000000       0.00000000       3.43737374       0.00000000       0.00000000      -0.99041927
2
Properties=species:S:1:pos:R:3:forces:R:3 energy=-16.09979169737365 pbc="F F F"
Np       0.00000000       0.00000000       0.00000000       0.00000000       0.00000000       1.02180278
Np       0.00000000       0.00000000       3.49696970       0.00000000       0.00000000      -1.02180278
2
Properties=species:S:1:pos:R:3:forces:R:3 energy=-16.039524950405834 pbc="F F F"
Np       0.00000000       0.00000000       0.00000000       0.00000000       0.00000000       0.99184197
Np       0.00000000       0.00000000       3.55656566       0.00000000       0.00000000      -0.99184197
2
Properties=species:S:1:pos:R:3:forces:R:3 energy=-15.982442935134527 pbc="F F F"
Np       0.00000000       0.00000000       0.00000000       0.00000000       0.00000000       0.91808987
Np       0.00000000       0.00000000       3.61616162       0.00000000       0.00000000      -0.91808987
2
Properties=species:S:1:pos:R:3:forces:R:3 energy=-15.930585342822344 pbc="F F F"
Np       0.00000000       0.00000000       0.00000000       0.00000000       0.00000000       0.81964463
Np       0.00000000       0.00000000       3.67575758       0.00000000       0.00000000      -0.81964463
2
Properties=species:S:1:pos:R:3:forces:R:3 energy=-15.884898941294008 pbc="F F F"
Np       0.00000000       0.00000000       0.00000000       0.00000000       0.00000000       0.71346408
Np       0.00000000       0.00000000       3.73535354       0.00000000       0.00000000      -0.71346408
2
Properties=species:S:1:pos:R:3:forces:R:3 energy=-15.845450130267317 pbc="F F F"
Np       0.00000000       0.00000000       0.00000000       0.00000000       0.00000000       0.61191201
Np       0.00000000       0.00000000       3.79494949       0.00000000       0.00000000      -0.61191201
2
Properties=species:S:1:pos:R:3:forces:R:3 energy=-15.811726505177736 pbc="F F F"
Np       0.00000000       0.00000000       0.00000000       0.00000000       0.00000000       0.52213615
Np       0.00000000       0.00000000       3.85454545       0.00000000       0.00000000      -0.52213615
2
Properties=species:S:1:pos:R:3:forces:R:3 energy=-15.78292287077431 pbc="F F F"
Np       0.00000000       0.00000000       0.00000000       0.00000000       0.00000000       0.44702679
Np       0.00000000       0.00000000       3.91414141       0.00000000       0.00000000      -0.44702679
2
Properties=species:S:1:pos:R:3:forces:R:3 energy=-15.758147209429422 pbc="F F F"
Np       0.00000000       0.00000000       0.00000000       0.00000000       0.00000000       0.38683897
Np       0.00000000       0.00000000       3.97373737       0.00000000       0.00000000      -0.38683897
2
Properties=species:S:1:pos:R:3:forces:R:3 energy=-15.736537232146018 pbc="F F F"
Np       0.00000000       0.00000000       0.00000000       0.00000000       0.00000000       0.34062061
Np       0.00000000       0.00000000       4.03333333       0.00000000       0.00000000      -0.34062061
2
Properties=species:S:1:pos:R:3:forces:R:3 energy=-15.71729842415995 pbc="F F F"
Np       0.00000000       0.00000000       0.00000000       0.00000000       0.00000000       0.30700499
Np       0.00000000       0.00000000       4.09292929       0.00000000       0.00000000      -0.30700499
2
Properties=species:S:1:pos:R:3:forces:R:3 energy=-15.69972417347093 pbc="F F F"
Np       0.00000000       0.00000000       0.00000000       0.00000000       0.00000000       0.28446397
Np       0.00000000       0.00000000       4.15252525       0.00000000       0.00000000      -0.28446397
2
Properties=species:S:1:pos:R:3:forces:R:3 energy=-15.683206324616458 pbc="F F F"
Np       0.00000000       0.00000000       0.00000000       0.00000000       0.00000000       0.27128959
Np       0.00000000       0.00000000       4.21212121       0.00000000       0.00000000      -0.27128959
2
Properties=species:S:1:pos:R:3:forces:R:3 energy=-15.667239959714685 pbc="F F F"
Np       0.00000000       0.00000000       0.00000000       0.00000000       0.00000000       0.26558802
Np       0.00000000       0.00000000       4.27171717       0.00000000       0.00000000      -0.26558802
2
Properties=species:S:1:pos:R:3:forces:R:3 energy=-15.651440653301137 pbc="F F F"
Np       0.00000000       0.00000000       0.00000000       0.00000000       0.00000000       0.26539341
Np       0.00000000       0.00000000       4.33131313       0.00000000       0.00000000      -0.26539341
2
Properties=species:S:1:pos:R:3:forces:R:3 energy=-15.6355359526163 pbc="F F F"
Np       0.00000000       0.00000000       0.00000000       0.00000000       0.00000000       0.26883850
Np       0.00000000       0.00000000       4.39090909       0.00000000       0.00000000      -0.26883850
2
Properties=species:S:1:pos:R:3:forces:R:3 energy=-15.619357710197235 pbc="F F F"
Np       0.00000000       0.00000000       0.00000000       0.00000000       0.00000000       0.27429724
Np       0.00000000       0.00000000       4.45050505       0.00000000       0.00000000      -0.27429724
2
Properties=species:S:1:pos:R:3:forces:R:3 energy=-15.602828960520334 pbc="F F F"
Np       0.00000000       0.00000000       0.00000000       0.00000000       0.00000000       0.28041846
Np       0.00000000       0.00000000       4.51010101       0.00000000       0.00000000      -0.28041846
2
Properties=species:S:1:pos:R:3:forces:R:3 energy=-15.585943728113925 pbc="F F F"
Np       0.00000000       0.00000000       0.00000000       0.00000000       0.00000000       0.28605729
Np       0.00000000       0.00000000       4.56969697       0.00000000       0.00000000      -0.28605729
2
Properties=species:S:1:pos:R:3:forces:R:3 energy=-15.568762550626332 pbc="F F F"
Np       0.00000000       0.00000000       0.00000000       0.00000000       0.00000000       0.29017788
Np       0.00000000       0.00000000       4.62929293       0.00000000       0.00000000      -0.29017788
2
Properties=species:S:1:pos:R:3:forces:R:3 energy=-15.551406554039357 pbc="F F F"
Np       0.00000000       0.00000000       0.00000000       0.00000000       0.00000000       0.29181767
Np       0.00000000       0.00000000       4.68888889       0.00000000       0.00000000      -0.29181767
2
Properties=species:S:1:pos:R:3:forces:R:3 energy=-15.53404626200225 pbc="F F F"
Np       0.00000000       0.00000000       0.00000000       0.00000000       0.00000000       0.29015511
Np       0.00000000       0.00000000       4.74848485       0.00000000       0.00000000      -0.29015511
2
Properties=species:S:1:pos:R:3:forces:R:3 energy=-15.516897616407697 pbc="F F F"
Np       0.00000000       0.00000000       0.00000000       0.00000000       0.00000000       0.28469968
Np       0.00000000       0.00000000       4.80808081       0.00000000       0.00000000      -0.28469968
2
Properties=species:S:1:pos:R:3:forces:R:3 energy=-15.50018683082629 pbc="F F F"
Np       0.00000000       0.00000000       0.00000000       0.00000000       0.00000000       0.27550721
Np       0.00000000       0.00000000       4.86767677       0.00000000       0.00000000      -0.27550721
2
Properties=species:S:1:pos:R:3:forces:R:3 energy=-15.484118925589724 pbc="F F F"
Np       0.00000000       0.00000000       0.00000000       0.00000000       0.00000000       0.26330274
Np       0.00000000       0.00000000       4.92727273       0.00000000       0.00000000      -0.26330274
2
Properties=species:S:1:pos:R:3:forces:R:3 energy=-15.46883756576356 pbc="F F F"
Np       0.00000000       0.00000000       0.00000000       0.00000000       0.00000000       0.24939479
Np       0.00000000       0.00000000       4.98686869       0.00000000       0.00000000      -0.24939479
2
Properties=species:S:1:pos:R:3:forces:R:3 energy=-15.454397493291056 pbc="F F F"
Np       0.00000000       0.00000000       0.00000000       0.00000000       0.00000000       0.23535705
Np       0.00000000       0.00000000       5.04646465       0.00000000       0.00000000      -0.23535705
2
Properties=species:S:1:pos:R:3:forces:R:3 energy=-15.440760522226597 pbc="F F F"
Np       0.00000000       0.00000000       0.00000000       0.00000000       0.00000000       0.22257575
Np       0.00000000       0.00000000       5.10606061       0.00000000       0.00000000      -0.22257575
2
Properties=species:S:1:pos:R:3:forces:R:3 energy=-15.427825223016722 pbc="F F F"
Np       0.00000000       0.00000000       0.00000000       0.00000000       0.00000000       0.21182731
Np       0.00000000       0.00000000       5.16565657       0.00000000       0.00000000      -0.21182731
2
Properties=species:S:1:pos:R:3:forces:R:3 energy=-15.415471542452392 pbc="F F F"
Np       0.00000000       0.00000000       0.00000000       0.00000000       0.00000000       0.20306447
Np       0.00000000       0.00000000       5.22525253       0.00000000       0.00000000      -0.20306447
2
Properties=species:S:1:pos:R:3:forces:R:3 energy=-15.403598906292128 pbc="F F F"
Np       0.00000000       0.00000000       0.00000000       0.00000000       0.00000000       0.19548187
Np       0.00000000       0.00000000       5.28484848       0.00000000       0.00000000      -0.19548187
2
Properties=species:S:1:pos:R:3:forces:R:3 energy=-15.39217385229268 pbc="F F F"
Np       0.00000000       0.00000000       0.00000000       0.00000000       0.00000000       0.18780033
Np       0.00000000       0.00000000       5.34444444       0.00000000       0.00000000      -0.18780033
2
Properties=species:S:1:pos:R:3:forces:R:3 energy=-15.38124227591968 pbc="F F F"
Np       0.00000000       0.00000000       0.00000000       0.00000000       0.00000000       0.17869037
Np       0.00000000       0.00000000       5.40404040       0.00000000       0.00000000      -0.17869037
2
Properties=species:S:1:pos:R:3:forces:R:3 energy=-15.370921718589729 pbc="F F F"
Np       0.00000000       0.00000000       0.00000000       0.00000000       0.00000000       0.16714281
Np       0.00000000       0.00000000       5.46363636       0.00000000       0.00000000      -0.16714281
2
Properties=species:S:1:pos:R:3:forces:R:3 energy=-15.361380304472066 pbc="F F F"
Np       0.00000000       0.00000000       0.00000000       0.00000000       0.00000000       0.15271579
Np       0.00000000       0.00000000       5.52323232       0.00000000       0.00000000      -0.15271579
2
Properties=species:S:1:pos:R:3:forces:R:3 energy=-15.35277461227382 pbc="F F F"
Np       0.00000000       0.00000000       0.00000000       0.00000000       0.00000000       0.13566522
Np       0.00000000       0.00000000       5.58282828       0.00000000       0.00000000      -0.13566522
2
Properties=species:S:1:pos:R:3:forces:R:3 energy=-15.345245746501156 pbc="F F F"
Np       0.00000000       0.00000000       0.00000000       0.00000000       0.00000000       0.11682194
Np       0.00000000       0.00000000       5.64242424       0.00000000       0.00000000      -0.11682194
2
Properties=species:S:1:pos:R:3:forces:R:3 energy=-15.338859236970404 pbc="F F F"
Np       0.00000000       0.00000000       0.00000000       0.00000000       0.00000000       0.09741960
Np       0.00000000       0.00000000       5.70202020       0.00000000       0.00000000      -0.09741960
2
Properties=species:S:1:pos:R:3:forces:R:3 energy=-15.333617309861282 pbc="F F F"
Np       0.00000000       0.00000000       0.00000000       0.00000000       0.00000000       0.07888208
Np       0.00000000       0.00000000       5.76161616       0.00000000       0.00000000      -0.07888208
2
Properties=species:S:1:pos:R:3:forces:R:3 energy=-15.329413950982437 pbc="F F F"
Np       0.00000000       0.00000000       0.00000000       0.00000000       0.00000000       0.06259805
Np       0.00000000       0.00000000       5.82121212       0.00000000       0.00000000      -0.06259805
2
Properties=species:S:1:pos:R:3:forces:R:3 energy=-15.32608929688569 pbc="F F F"
Np       0.00000000       0.00000000       0.00000000       0.00000000       0.00000000       0.04976258
Np       0.00000000       0.00000000       5.88080808       0.00000000       0.00000000      -0.04976258
2
Properties=species:S:1:pos:R:3:forces:R:3 energy=-15.323396123216448 pbc="F F F"
Np       0.00000000       0.00000000       0.00000000       0.00000000       0.00000000       0.04125282
Np       0.00000000       0.00000000       5.94040404       0.00000000       0.00000000      -0.04125282
2
Properties=species:S:1:pos:R:3:forces:R:3 energy=-15.321070460962607 pbc="F F F"
Np       0.00000000       0.00000000       0.00000000       0.00000000       0.00000000       0.03771560
Np       0.00000000       0.00000000       6.00000000       0.00000000       0.00000000      -0.03771560
