2
Properties=species:S:1:pos:R:3:forces:R:3 energy=38964.579218750536 pbc="F F F"
Pd       0.00000000       0.00000000       0.00000000       0.00000000       0.00000000 -931052.12500000
Pd       0.00000000       0.00000000       0.10000000       0.00000000       0.00000000  931052.12500000
2
Properties=species:S:1:pos:R:3:forces:R:3 energy=11496.110468750534 pbc="F F F"
Pd       0.00000000       0.00000000       0.00000000       0.00000000       0.00000000 -204869.46875000
Pd       0.00000000       0.00000000       0.15959596       0.00000000       0.00000000  204869.46875000
2
Properties=species:S:1:pos:R:3:forces:R:3 energy=4405.271601563033 pbc="F F F"
Pd       0.00000000       0.00000000       0.00000000       0.00000000       0.00000000  -64614.47656250
Pd       0.00000000       0.00000000       0.21919192       0.00000000       0.00000000   64614.47656250
2
Properties=species:S:1:pos:R:3:forces:R:3 energy=1953.5329541020956 pbc="F F F"
Pd       0.00000000       0.00000000       0.00000000       0.00000000       0.00000000  -24914.94531250
Pd       0.00000000       0.00000000       0.27878788       0.00000000       0.00000000   24914.94531250
2
Properties=species:S:1:pos:R:3:forces:R:3 energy=953.4243115303062 pbc="F F F"
Pd       0.00000000       0.00000000       0.00000000       0.00000000       0.00000000  -10842.31542969
Pd       0.00000000       0.00000000       0.33838384       0.00000000       0.00000000   10842.31542969
2
Properties=species:S:1:pos:R:3:forces:R:3 energy=501.9221142710169 pbc="F F F"
Pd       0.00000000       0.00000000       0.00000000       0.00000000       0.00000000   -5105.24365234
Pd       0.00000000       0.00000000       0.39797980       0.00000000       0.00000000    5105.24365234
2
Properties=species:S:1:pos:R:3:forces:R:3 energy=283.7103222915007 pbc="F F F"
Pd       0.00000000       0.00000000       0.00000000       0.00000000       0.00000000   -2542.33593750
Pd       0.00000000       0.00000000       0.45757576       0.00000000       0.00000000    2542.33593750
2
Properties=species:S:1:pos:R:3:forces:R:3 energy=172.91921514544453 pbc="F F F"
Pd       0.00000000       0.00000000       0.00000000       0.00000000       0.00000000   -1319.21264648
Pd       0.00000000       0.00000000       0.51717172       0.00000000       0.00000000    1319.21264648
2
Properties=species:S:1:pos:R:3:forces:R:3 energy=114.64206981672314 pbc="F F F"
Pd       0.00000000       0.00000000       0.00000000       0.00000000       0.00000000    -704.02923584
Pd       0.00000000       0.00000000       0.57676768       0.00000000       0.00000000     704.02923584
2
Properties=species:S:1:pos:R:3:forces:R:3 energy=83.28089436197715 pbc="F F F"
Pd       0.00000000       0.00000000       0.00000000       0.00000000       0.00000000    -382.24136353
Pd       0.00000000       0.00000000       0.63636364       0.00000000       0.00000000     382.24136353
2
Properties=species:S:1:pos:R:3:forces:R:3 energy=66.11990665369305 pbc="F F F"
Pd       0.00000000       0.00000000       0.00000000       0.00000000       0.00000000    -211.81950378
Pd       0.00000000       0.00000000       0.69595960       0.00000000       0.00000000     211.81950378
2
Properties=species:S:1:pos:R:3:forces:R:3 energy=56.408057656458475 pbc="F F F"
Pd       0.00000000       0.00000000       0.00000000       0.00000000       0.00000000    -124.17217255
Pd       0.00000000       0.00000000       0.75555556       0.00000000       0.00000000     124.17217255
2
Properties=species:S:1:pos:R:3:forces:R:3 energy=50.42621213019909 pbc="F F F"
Pd       0.00000000       0.00000000       0.00000000       0.00000000       0.00000000     -81.97818756
Pd       0.00000000       0.00000000       0.81515152       0.00000000       0.00000000      81.97818756
2
Properties=species:S:1:pos:R:3:forces:R:3 energy=46.17284422451904 pbc="F F F"
Pd       0.00000000       0.00000000       0.00000000       0.00000000       0.00000000     -63.51293945
Pd       0.00000000       0.00000000       0.87474747       0.00000000       0.00000000      63.51293945
2
Properties=species:S:1:pos:R:3:forces:R:3 energy=42.581891066025214 pbc="F F F"
Pd       0.00000000       0.00000000       0.00000000       0.00000000       0.00000000     -59.40510559
Pd       0.00000000       0.00000000       0.93434343       0.00000000       0.00000000      59.40510559
2
Properties=species:S:1:pos:R:3:forces:R:3 energy=38.73296163214257 pbc="F F F"
Pd       0.00000000       0.00000000       0.00000000       0.00000000       0.00000000     -72.58121490
Pd       0.00000000       0.00000000       0.99393939       0.00000000       0.00000000      72.58121490
2
Properties=species:S:1:pos:R:3:forces:R:3 energy=33.96348885705912 pbc="F F F"
Pd       0.00000000       0.00000000       0.00000000       0.00000000       0.00000000     -84.58821869
Pd       0.00000000       0.00000000       1.05353535       0.00000000       0.00000000      84.58821869
2
Properties=species:S:1:pos:R:3:forces:R:3 energy=28.817318972516283 pbc="F F F"
Pd       0.00000000       0.00000000       0.00000000       0.00000000       0.00000000     -88.45100403
Pd       0.00000000       0.00000000       1.11313131       0.00000000       0.00000000      88.45100403
2
Properties=species:S:1:pos:R:3:forces:R:3 energy=23.425910356019426 pbc="F F F"
Pd       0.00000000       0.00000000       0.00000000       0.00000000       0.00000000     -91.41102600
Pd       0.00000000       0.00000000       1.17272727       0.00000000       0.00000000      91.41102600
2
Properties=species:S:1:pos:R:3:forces:R:3 energy=18.121488946513264 pbc="F F F"
Pd       0.00000000       0.00000000       0.00000000       0.00000000       0.00000000     -84.88822937
Pd       0.00000000       0.00000000       1.23232323       0.00000000       0.00000000      84.88822937
2
Properties=species:S:1:pos:R:3:forces:R:3 energy=13.458110109981485 pbc="F F F"
Pd       0.00000000       0.00000000       0.00000000       0.00000000       0.00000000     -70.84107971
Pd       0.00000000       0.00000000       1.29191919       0.00000000       0.00000000      70.84107971
2
Properties=species:S:1:pos:R:3:forces:R:3 energy=9.709629233172718 pbc="F F F"
Pd       0.00000000       0.00000000       0.00000000       0.00000000       0.00000000     -55.26533508
Pd       0.00000000       0.00000000       1.35151515       0.00000000       0.00000000      55.26533508
2
Properties=species:S:1:pos:R:3:forces:R:3 energy=6.776812907347352 pbc="F F F"
Pd       0.00000000       0.00000000       0.00000000       0.00000000       0.00000000     -44.13985825
Pd       0.00000000       0.00000000       1.41111111       0.00000000       0.00000000      44.13985825
2
Properties=species:S:1:pos:R:3:forces:R:3 energy=4.366429386973788 pbc="F F F"
Pd       0.00000000       0.00000000       0.00000000       0.00000000       0.00000000     -36.98944473
Pd       0.00000000       0.00000000       1.47070707       0.00000000       0.00000000      36.98944473
2
Properties=species:S:1:pos:R:3:forces:R:3 energy=2.377714673055386 pbc="F F F"
Pd       0.00000000       0.00000000       0.00000000       0.00000000       0.00000000     -29.57212067
Pd       0.00000000       0.00000000       1.53030303       0.00000000       0.00000000      29.57212067
2
Properties=species:S:1:pos:R:3:forces:R:3 energy=0.844138896394066 pbc="F F F"
Pd       0.00000000       0.00000000       0.00000000       0.00000000       0.00000000     -22.07934570
Pd       0.00000000       0.00000000       1.58989899       0.00000000       0.00000000      22.07934570
2
Properties=species:S:1:pos:R:3:forces:R:3 energy=-0.2929870992875968 pbc="F F F"
Pd       0.00000000       0.00000000       0.00000000       0.00000000       0.00000000     -16.47264862
Pd       0.00000000       0.00000000       1.64949495       0.00000000       0.00000000      16.47264862
2
Properties=species:S:1:pos:R:3:forces:R:3 energy=-1.1622777681591812 pbc="F F F"
Pd       0.00000000       0.00000000       0.00000000       0.00000000       0.00000000     -12.99596405
Pd       0.00000000       0.00000000       1.70909091       0.00000000       0.00000000      12.99596405
2
Properties=species:S:1:pos:R:3:forces:R:3 energy=-1.8676663268659697 pbc="F F F"
Pd       0.00000000       0.00000000       0.00000000       0.00000000       0.00000000     -10.81751442
Pd       0.00000000       0.00000000       1.76868687       0.00000000       0.00000000      10.81751442
2
Properties=species:S:1:pos:R:3:forces:R:3 energy=-2.461986942598741 pbc="F F F"
Pd       0.00000000       0.00000000       0.00000000       0.00000000       0.00000000      -9.17459774
Pd       0.00000000       0.00000000       1.82828283       0.00000000       0.00000000       9.17459774
2
Properties=species:S:1:pos:R:3:forces:R:3 energy=-2.9642746718013595 pbc="F F F"
Pd       0.00000000       0.00000000       0.00000000       0.00000000       0.00000000      -7.69578457
Pd       0.00000000       0.00000000       1.88787879       0.00000000       0.00000000       7.69578457
2
Properties=species:S:1:pos:R:3:forces:R:3 energy=-3.3806246966648614 pbc="F F F"
Pd       0.00000000       0.00000000       0.00000000       0.00000000       0.00000000      -6.28908491
Pd       0.00000000       0.00000000       1.94747475       0.00000000       0.00000000       6.28908491
2
Properties=species:S:1:pos:R:3:forces:R:3 energy=-3.715804152746579 pbc="F F F"
Pd       0.00000000       0.00000000       0.00000000       0.00000000       0.00000000      -4.97929525
Pd       0.00000000       0.00000000       2.00707071       0.00000000       0.00000000       4.97929525
2
Properties=species:S:1:pos:R:3:forces:R:3 energy=-3.9768624213424846 pbc="F F F"
Pd       0.00000000       0.00000000       0.00000000       0.00000000       0.00000000      -3.80672789
Pd       0.00000000       0.00000000       2.06666667       0.00000000       0.00000000       3.80672789
2
Properties=species:S:1:pos:R:3:forces:R:3 energy=-4.172533703917858 pbc="F F F"
Pd       0.00000000       0.00000000       0.00000000       0.00000000       0.00000000      -2.78412652
Pd       0.00000000       0.00000000       2.12626263       0.00000000       0.00000000       2.78412652
2
Properties=species:S:1:pos:R:3:forces:R:3 energy=-4.311371790592863 pbc="F F F"
Pd       0.00000000       0.00000000       0.00000000       0.00000000       0.00000000      -1.89533830
Pd       0.00000000       0.00000000       2.18585859       0.00000000       0.00000000       1.89533830
2
Properties=species:S:1:pos:R:3:forces:R:3 energy=-4.400607480045866 pbc="F F F"
Pd       0.00000000       0.00000000       0.00000000       0.00000000       0.00000000      -1.11595917
Pd       0.00000000       0.00000000       2.24545455       0.00000000       0.00000000       1.11595917
2
Properties=species:S:1:pos:R:3:forces:R:3 energy=-4.446280788106436 pbc="F F F"
Pd       0.00000000       0.00000000       0.00000000       0.00000000       0.00000000      -0.43256241
Pd       0.00000000       0.00000000       2.30505051       0.00000000       0.00000000       0.43256241
2
Properties=species:S:1:pos:R:3:forces:R:3 energy=-4.45409367121529 pbc="F F F"
Pd       0.00000000       0.00000000       0.00000000       0.00000000       0.00000000       0.15353671
Pd       0.00000000       0.00000000       2.36464646       0.00000000       0.00000000      -0.15353671
2
Properties=species:S:1:pos:R:3:forces:R:3 energy=-4.430065015703353 pbc="F F F"
Pd       0.00000000       0.00000000       0.00000000       0.00000000       0.00000000       0.63484776
Pd       0.00000000       0.00000000       2.42424242       0.00000000       0.00000000      -0.63484776
2
Properties=species:S:1:pos:R:3:forces:R:3 energy=-4.380579661779877 pbc="F F F"
Pd       0.00000000       0.00000000       0.00000000       0.00000000       0.00000000       1.00818563
Pd       0.00000000       0.00000000       2.48383838       0.00000000       0.00000000      -1.00818563
2
Properties=species:S:1:pos:R:3:forces:R:3 energy=-4.311845793102412 pbc="F F F"
Pd       0.00000000       0.00000000       0.00000000       0.00000000       0.00000000       1.28421748
Pd       0.00000000       0.00000000       2.54343434       0.00000000       0.00000000      -1.28421748
2
Properties=species:S:1:pos:R:3:forces:R:3 energy=-4.228888704023084 pbc="F F F"
Pd       0.00000000       0.00000000       0.00000000       0.00000000       0.00000000       1.49059331
Pd       0.00000000       0.00000000       2.60303030       0.00000000       0.00000000      -1.49059331
2
Properties=species:S:1:pos:R:3:forces:R:3 energy=-4.135210852898909 pbc="F F F"
Pd       0.00000000       0.00000000       0.00000000       0.00000000       0.00000000       1.64323568
Pd       0.00000000       0.00000000       2.66262626       0.00000000       0.00000000      -1.64323568
2
Properties=species:S:1:pos:R:3:forces:R:3 energy=-4.034523490964406 pbc="F F F"
Pd       0.00000000       0.00000000       0.00000000       0.00000000       0.00000000       1.72104025
Pd       0.00000000       0.00000000       2.72222222       0.00000000       0.00000000      -1.72104025
2
Properties=species:S:1:pos:R:3:forces:R:3 energy=-3.9318762151227755 pbc="F F F"
Pd       0.00000000       0.00000000       0.00000000       0.00000000       0.00000000       1.70950317
Pd       0.00000000       0.00000000       2.78181818       0.00000000       0.00000000      -1.70950317
2
Properties=species:S:1:pos:R:3:forces:R:3 energy=-3.8322472686851325 pbc="F F F"
Pd       0.00000000       0.00000000       0.00000000       0.00000000       0.00000000       1.62348557
Pd       0.00000000       0.00000000       2.84141414       0.00000000       0.00000000      -1.62348557
2
Properties=species:S:1:pos:R:3:forces:R:3 energy=-3.7393777233279644 pbc="F F F"
Pd       0.00000000       0.00000000       0.00000000       0.00000000       0.00000000       1.48660314
Pd       0.00000000       0.00000000       2.90101010       0.00000000       0.00000000      -1.48660314
2
Properties=species:S:1:pos:R:3:forces:R:3 energy=-3.6556447989961667 pbc="F F F"
Pd       0.00000000       0.00000000       0.00000000       0.00000000       0.00000000       1.32005799
Pd       0.00000000       0.00000000       2.96060606       0.00000000       0.00000000      -1.32005799
2
Properties=species:S:1:pos:R:3:forces:R:3 energy=-3.5822664883210784 pbc="F F F"
Pd       0.00000000       0.00000000       0.00000000       0.00000000       0.00000000       1.14185834
Pd       0.00000000       0.00000000       3.02020202       0.00000000       0.00000000      -1.14185834
2
Properties=species:S:1:pos:R:3:forces:R:3 energy=-3.5194760508144833 pbc="F F F"
Pd       0.00000000       0.00000000       0.00000000       0.00000000       0.00000000       0.96698606
Pd       0.00000000       0.00000000       3.07979798       0.00000000       0.00000000      -0.96698606
2
Properties=species:S:1:pos:R:3:forces:R:3 energy=-3.4667080666568415 pbc="F F F"
Pd       0.00000000       0.00000000       0.00000000       0.00000000       0.00000000       0.80719000
Pd       0.00000000       0.00000000       3.13939394       0.00000000       0.00000000      -0.80719000
2
Properties=species:S:1:pos:R:3:forces:R:3 energy=-3.422798084820328 pbc="F F F"
Pd       0.00000000       0.00000000       0.00000000       0.00000000       0.00000000       0.67080802
Pd       0.00000000       0.00000000       3.19898990       0.00000000       0.00000000      -0.67080802
2
Properties=species:S:1:pos:R:3:forces:R:3 energy=-3.3861896807897183 pbc="F F F"
Pd       0.00000000       0.00000000       0.00000000       0.00000000       0.00000000       0.56266874
Pd       0.00000000       0.00000000       3.25858586       0.00000000       0.00000000      -0.56266874
2
Properties=species:S:1:pos:R:3:forces:R:3 energy=-3.3551437570686855 pbc="F F F"
Pd       0.00000000       0.00000000       0.00000000       0.00000000       0.00000000       0.48404595
Pd       0.00000000       0.00000000       3.31818182       0.00000000       0.00000000      -0.48404595
2
Properties=species:S:1:pos:R:3:forces:R:3 energy=-3.3279482104814004 pbc="F F F"
Pd       0.00000000       0.00000000       0.00000000       0.00000000       0.00000000       0.43286997
Pd       0.00000000       0.00000000       3.37777778       0.00000000       0.00000000      -0.43286997
2
Properties=species:S:1:pos:R:3:forces:R:3 energy=-3.3030971872660526 pbc="F F F"
Pd       0.00000000       0.00000000       0.00000000       0.00000000       0.00000000       0.40439734
Pd       0.00000000       0.00000000       3.43737374       0.00000000       0.00000000      -0.40439734
2
Properties=species:S:1:pos:R:3:forces:R:3 energy=-3.279421949532202 pbc="F F F"
Pd       0.00000000       0.00000000       0.00000000       0.00000000       0.00000000       0.39228210
Pd       0.00000000       0.00000000       3.49696970       0.00000000       0.00000000      -0.39228210
2
Properties=species:S:1:pos:R:3:forces:R:3 energy=-3.2561498366778068 pbc="F F F"
Pd       0.00000000       0.00000000       0.00000000       0.00000000       0.00000000       0.38976878
Pd       0.00000000       0.00000000       3.55656566       0.00000000       0.00000000      -0.38976878
2
Properties=species:S:1:pos:R:3:forces:R:3 energy=-3.2328966676729136 pbc="F F F"
Pd       0.00000000       0.00000000       0.00000000       0.00000000       0.00000000       0.39073423
Pd       0.00000000       0.00000000       3.61616162       0.00000000       0.00000000      -0.39073423
2
Properties=species:S:1:pos:R:3:forces:R:3 energy=-3.2096044377827826 pbc="F F F"
Pd       0.00000000       0.00000000       0.00000000       0.00000000       0.00000000       0.39040208
Pd       0.00000000       0.00000000       3.67575758       0.00000000       0.00000000      -0.39040208
2
Properties=species:S:1:pos:R:3:forces:R:3 energy=-3.1864517705527104 pbc="F F F"
Pd       0.00000000       0.00000000       0.00000000       0.00000000       0.00000000       0.38570100
Pd       0.00000000       0.00000000       3.73535354       0.00000000       0.00000000      -0.38570100
2
Properties=species:S:1:pos:R:3:forces:R:3 energy=-3.1637467411531315 pbc="F F F"
Pd       0.00000000       0.00000000       0.00000000       0.00000000       0.00000000       0.37528217
Pd       0.00000000       0.00000000       3.79494949       0.00000000       0.00000000      -0.37528217
2
Properties=species:S:1:pos:R:3:forces:R:3 energy=-3.1418334859886934 pbc="F F F"
Pd       0.00000000       0.00000000       0.00000000       0.00000000       0.00000000       0.35924163
Pd       0.00000000       0.00000000       3.85454545       0.00000000       0.00000000      -0.35924163
2
Properties=species:S:1:pos:R:3:forces:R:3 energy=-3.121018871146206 pbc="F F F"
Pd       0.00000000       0.00000000       0.00000000       0.00000000       0.00000000       0.33864480
Pd       0.00000000       0.00000000       3.91414141       0.00000000       0.00000000      -0.33864480
2
Properties=species:S:1:pos:R:3:forces:R:3 energy=-3.1015303216484558 pbc="F F F"
Pd       0.00000000       0.00000000       0.00000000       0.00000000       0.00000000       0.31498674
Pd       0.00000000       0.00000000       3.97373737       0.00000000       0.00000000      -0.31498674
2
Properties=species:S:1:pos:R:3:forces:R:3 energy=-3.0835066371712188 pbc="F F F"
Pd       0.00000000       0.00000000       0.00000000       0.00000000       0.00000000       0.28972176
Pd       0.00000000       0.00000000       4.03333333       0.00000000       0.00000000      -0.28972176
2
Properties=species:S:1:pos:R:3:forces:R:3 energy=-3.0670075961426075 pbc="F F F"
Pd       0.00000000       0.00000000       0.00000000       0.00000000       0.00000000       0.26395491
Pd       0.00000000       0.00000000       4.09292929       0.00000000       0.00000000      -0.26395491
2
Properties=species:S:1:pos:R:3:forces:R:3 energy=-3.0520419624225186 pbc="F F F"
Pd       0.00000000       0.00000000       0.00000000       0.00000000       0.00000000       0.23833181
Pd       0.00000000       0.00000000       4.15252525       0.00000000       0.00000000      -0.23833181
2
Properties=species:S:1:pos:R:3:forces:R:3 energy=-3.03859285037078 pbc="F F F"
Pd       0.00000000       0.00000000       0.00000000       0.00000000       0.00000000       0.21308836
Pd       0.00000000       0.00000000       4.21212121       0.00000000       0.00000000      -0.21308836
2
Properties=species:S:1:pos:R:3:forces:R:3 energy=-3.0266363825168567 pbc="F F F"
Pd       0.00000000       0.00000000       0.00000000       0.00000000       0.00000000       0.18821108
Pd       0.00000000       0.00000000       4.27171717       0.00000000       0.00000000      -0.18821108
2
Properties=species:S:1:pos:R:3:forces:R:3 energy=-3.016153684180635 pbc="F F F"
Pd       0.00000000       0.00000000       0.00000000       0.00000000       0.00000000       0.16362771
Pd       0.00000000       0.00000000       4.33131313       0.00000000       0.00000000      -0.16362771
2
Properties=species:S:1:pos:R:3:forces:R:3 energy=-3.007127110788763 pbc="F F F"
Pd       0.00000000       0.00000000       0.00000000       0.00000000       0.00000000       0.13936375
Pd       0.00000000       0.00000000       4.39090909       0.00000000       0.00000000      -0.13936375
2
Properties=species:S:1:pos:R:3:forces:R:3 energy=-2.9995319262310542 pbc="F F F"
Pd       0.00000000       0.00000000       0.00000000       0.00000000       0.00000000       0.11564194
Pd       0.00000000       0.00000000       4.45050505       0.00000000       0.00000000      -0.11564194
2
Properties=species:S:1:pos:R:3:forces:R:3 energy=-2.9933242615542914 pbc="F F F"
Pd       0.00000000       0.00000000       0.00000000       0.00000000       0.00000000       0.09289211
Pd       0.00000000       0.00000000       4.51010101       0.00000000       0.00000000      -0.09289211
2
Properties=species:S:1:pos:R:3:forces:R:3 energy=-2.9884291283409232 pbc="F F F"
Pd       0.00000000       0.00000000       0.00000000       0.00000000       0.00000000       0.07169557
Pd       0.00000000       0.00000000       4.56969697       0.00000000       0.00000000      -0.07169557
2
Properties=species:S:1:pos:R:3:forces:R:3 energy=-2.9847352431924143 pbc="F F F"
Pd       0.00000000       0.00000000       0.00000000       0.00000000       0.00000000       0.05268668
Pd       0.00000000       0.00000000       4.62929293       0.00000000       0.00000000      -0.05268668
2
Properties=species:S:1:pos:R:3:forces:R:3 energy=-2.982094516877957 pbc="F F F"
Pd       0.00000000       0.00000000       0.00000000       0.00000000       0.00000000       0.03642868
Pd       0.00000000       0.00000000       4.68888889       0.00000000       0.00000000      -0.03642868
2
Properties=species:S:1:pos:R:3:forces:R:3 energy=-2.9803306754171888 pbc="F F F"
Pd       0.00000000       0.00000000       0.00000000       0.00000000       0.00000000       0.02330682
Pd       0.00000000       0.00000000       4.74848485       0.00000000       0.00000000      -0.02330682
2
Properties=species:S:1:pos:R:3:forces:R:3 energy=-2.979251216687107 pbc="F F F"
Pd       0.00000000       0.00000000       0.00000000       0.00000000       0.00000000       0.01346534
Pd       0.00000000       0.00000000       4.80808081       0.00000000       0.00000000      -0.01346534
2
Properties=species:S:1:pos:R:3:forces:R:3 energy=-2.978662827602239 pbc="F F F"
Pd       0.00000000       0.00000000       0.00000000       0.00000000       0.00000000       0.00679119
Pd       0.00000000       0.00000000       4.86767677       0.00000000       0.00000000      -0.00679119
2
Properties=species:S:1:pos:R:3:forces:R:3 energy=-2.9783851236932097 pbc="F F F"
Pd       0.00000000       0.00000000       0.00000000       0.00000000       0.00000000       0.00296430
Pd       0.00000000       0.00000000       4.92727273       0.00000000       0.00000000      -0.00296430
2
Properties=species:S:1:pos:R:3:forces:R:3 energy=-2.9782618611156044 pbc="F F F"
Pd       0.00000000       0.00000000       0.00000000       0.00000000       0.00000000       0.00153165
Pd       0.00000000       0.00000000       4.98686869       0.00000000       0.00000000      -0.00153165
2
Properties=species:S:1:pos:R:3:forces:R:3 energy=-2.978165138653454 pbc="F F F"
Pd       0.00000000       0.00000000       0.00000000       0.00000000       0.00000000       0.00198373
Pd       0.00000000       0.00000000       5.04646465       0.00000000       0.00000000      -0.00198373
2
Properties=species:S:1:pos:R:3:forces:R:3 energy=-2.9779979332084956 pbc="F F F"
Pd       0.00000000       0.00000000       0.00000000       0.00000000       0.00000000       0.00381082
Pd       0.00000000       0.00000000       5.10606061       0.00000000       0.00000000      -0.00381082
2
Properties=species:S:1:pos:R:3:forces:R:3 energy=-2.9776933599538524 pbc="F F F"
Pd       0.00000000       0.00000000       0.00000000       0.00000000       0.00000000       0.00652718
Pd       0.00000000       0.00000000       5.16565657       0.00000000       0.00000000      -0.00652718
2
Properties=species:S:1:pos:R:3:forces:R:3 energy=-2.977211579228148 pbc="F F F"
Pd       0.00000000       0.00000000       0.00000000       0.00000000       0.00000000       0.00967460
Pd       0.00000000       0.00000000       5.22525253       0.00000000       0.00000000      -0.00967460
2
Properties=species:S:1:pos:R:3:forces:R:3 energy=-2.97654008405533 pbc="F F F"
Pd       0.00000000       0.00000000       0.00000000       0.00000000       0.00000000       0.01283171
Pd       0.00000000       0.00000000       5.28484848       0.00000000       0.00000000      -0.01283171
2
Properties=species:S:1:pos:R:3:forces:R:3 energy=-2.9756893269988636 pbc="F F F"
Pd       0.00000000       0.00000000       0.00000000       0.00000000       0.00000000       0.01562941
Pd       0.00000000       0.00000000       5.34444444       0.00000000       0.00000000      -0.01562941
2
Properties=species:S:1:pos:R:3:forces:R:3 energy=-2.9746900975573594 pbc="F F F"
Pd       0.00000000       0.00000000       0.00000000       0.00000000       0.00000000       0.01778104
Pd       0.00000000       0.00000000       5.40404040       0.00000000       0.00000000      -0.01778104
2
Properties=species:S:1:pos:R:3:forces:R:3 energy=-2.973586486816622 pbc="F F F"
Pd       0.00000000       0.00000000       0.00000000       0.00000000       0.00000000       0.01911144
Pd       0.00000000       0.00000000       5.46363636       0.00000000       0.00000000      -0.01911144
2
Properties=species:S:1:pos:R:3:forces:R:3 energy=-2.9724294881618802 pbc="F F F"
Pd       0.00000000       0.00000000       0.00000000       0.00000000       0.00000000       0.01956969
Pd       0.00000000       0.00000000       5.52323232       0.00000000       0.00000000      -0.01956969
2
Properties=species:S:1:pos:R:3:forces:R:3 energy=-2.9712696934169425 pbc="F F F"
Pd       0.00000000       0.00000000       0.00000000       0.00000000       0.00000000       0.01922927
Pd       0.00000000       0.00000000       5.58282828       0.00000000       0.00000000      -0.01922927
2
Properties=species:S:1:pos:R:3:forces:R:3 energy=-2.970150377121492 pbc="F F F"
Pd       0.00000000       0.00000000       0.00000000       0.00000000       0.00000000       0.01825308
Pd       0.00000000       0.00000000       5.64242424       0.00000000       0.00000000      -0.01825308
2
Properties=species:S:1:pos:R:3:forces:R:3 energy=-2.9691023495248348 pbc="F F F"
Pd       0.00000000       0.00000000       0.00000000       0.00000000       0.00000000       0.01685842
Pd       0.00000000       0.00000000       5.70202020       0.00000000       0.00000000      -0.01685842
2
Properties=species:S:1:pos:R:3:forces:R:3 energy=-2.9681446987681226 pbc="F F F"
Pd       0.00000000       0.00000000       0.00000000       0.00000000       0.00000000       0.01527174
Pd       0.00000000       0.00000000       5.76161616       0.00000000       0.00000000      -0.01527174
2
Properties=species:S:1:pos:R:3:forces:R:3 energy=-2.9672819219418507 pbc="F F F"
Pd       0.00000000       0.00000000       0.00000000       0.00000000       0.00000000       0.01369846
Pd       0.00000000       0.00000000       5.82121212       0.00000000       0.00000000      -0.01369846
2
Properties=species:S:1:pos:R:3:forces:R:3 energy=-2.966508785324281 pbc="F F F"
Pd       0.00000000       0.00000000       0.00000000       0.00000000       0.00000000       0.01229377
Pd       0.00000000       0.00000000       5.88080808       0.00000000       0.00000000      -0.01229377
2
Properties=species:S:1:pos:R:3:forces:R:3 energy=-2.9658110047911364 pbc="F F F"
Pd       0.00000000       0.00000000       0.00000000       0.00000000       0.00000000       0.01115936
Pd       0.00000000       0.00000000       5.94040404       0.00000000       0.00000000      -0.01115936
2
Properties=species:S:1:pos:R:3:forces:R:3 energy=-2.965171969053147 pbc="F F F"
Pd       0.00000000       0.00000000       0.00000000       0.00000000       0.00000000       0.01034850
Pd       0.00000000       0.00000000       6.00000000       0.00000000       0.00000000      -0.01034850
