2
Properties=species:S:1:pos:R:3:forces:R:3 energy=60664.62337516289 pbc="F F F"
Pm       0.00000000       0.00000000       0.00000000       0.00000000       0.00000000 -1497924.50000000
Pm       0.00000000       0.00000000       0.10000000       0.00000000       0.00000000 1497924.50000000
2
Properties=species:S:1:pos:R:3:forces:R:3 energy=17176.45540641289 pbc="F F F"
Pm       0.00000000       0.00000000       0.00000000       0.00000000       0.00000000 -316890.06250000
Pm       0.00000000       0.00000000       0.15959596       0.00000000       0.00000000  316890.06250000
2
Properties=species:S:1:pos:R:3:forces:R:3 energy=6340.79915641289 pbc="F F F"
Pm       0.00000000       0.00000000       0.00000000       0.00000000       0.00000000  -97069.28125000
Pm       0.00000000       0.00000000       0.21919192       0.00000000       0.00000000   97069.28125000
2
Properties=species:S:1:pos:R:3:forces:R:3 energy=2701.0970079753897 pbc="F F F"
Pm       0.00000000       0.00000000       0.00000000       0.00000000       0.00000000  -36375.87109375
Pm       0.00000000       0.00000000       0.27878788       0.00000000       0.00000000   36375.87109375
2
Properties=species:S:1:pos:R:3:forces:R:3 energy=1259.3881456707024 pbc="F F F"
Pm       0.00000000       0.00000000       0.00000000       0.00000000       0.00000000  -15368.17871094
Pm       0.00000000       0.00000000       0.33838384       0.00000000       0.00000000   15368.17871094
2
Properties=species:S:1:pos:R:3:forces:R:3 energy=627.3635485027337 pbc="F F F"
Pm       0.00000000       0.00000000       0.00000000       0.00000000       0.00000000   -7036.68945312
Pm       0.00000000       0.00000000       0.39797980       0.00000000       0.00000000    7036.68945312
2
Properties=species:S:1:pos:R:3:forces:R:3 energy=329.7403185349362 pbc="F F F"
Pm       0.00000000       0.00000000       0.00000000       0.00000000       0.00000000   -3426.77905273
Pm       0.00000000       0.00000000       0.45757576       0.00000000       0.00000000    3426.77905273
2
Properties=species:S:1:pos:R:3:forces:R:3 energy=181.34006525170904 pbc="F F F"
Pm       0.00000000       0.00000000       0.00000000       0.00000000       0.00000000   -1757.80859375
Pm       0.00000000       0.00000000       0.51717172       0.00000000       0.00000000    1757.80859375
2
Properties=species:S:1:pos:R:3:forces:R:3 energy=103.61056546015709 pbc="F F F"
Pm       0.00000000       0.00000000       0.00000000       0.00000000       0.00000000    -943.87127686
Pm       0.00000000       0.00000000       0.57676768       0.00000000       0.00000000     943.87127686
2
Properties=species:S:1:pos:R:3:forces:R:3 energy=61.08967622861568 pbc="F F F"
Pm       0.00000000       0.00000000       0.00000000       0.00000000       0.00000000    -527.67297363
Pm       0.00000000       0.00000000       0.63636364       0.00000000       0.00000000     527.67297363
2
Properties=species:S:1:pos:R:3:forces:R:3 energy=36.929111869364704 pbc="F F F"
Pm       0.00000000       0.00000000       0.00000000       0.00000000       0.00000000    -305.44180298
Pm       0.00000000       0.00000000       0.69595960       0.00000000       0.00000000     305.44180298
2
Properties=species:S:1:pos:R:3:forces:R:3 energy=22.7506337424395 pbc="F F F"
Pm       0.00000000       0.00000000       0.00000000       0.00000000       0.00000000    -182.01651001
Pm       0.00000000       0.00000000       0.75555556       0.00000000       0.00000000     182.01651001
2
Properties=species:S:1:pos:R:3:forces:R:3 energy=14.206145000305902 pbc="F F F"
Pm       0.00000000       0.00000000       0.00000000       0.00000000       0.00000000    -111.05511475
Pm       0.00000000       0.00000000       0.81515152       0.00000000       0.00000000     111.05511475
2
Properties=species:S:1:pos:R:3:forces:R:3 energy=8.944590510371519 pbc="F F F"
Pm       0.00000000       0.00000000       0.00000000       0.00000000       0.00000000     -69.09446716
Pm       0.00000000       0.00000000       0.87474747       0.00000000       0.00000000      69.09446716
2
Properties=species:S:1:pos:R:3:forces:R:3 energy=5.642858287023118 pbc="F F F"
Pm       0.00000000       0.00000000       0.00000000       0.00000000       0.00000000     -43.81073761
Pm       0.00000000       0.00000000       0.93434343       0.00000000       0.00000000      43.81073761
2
Properties=species:S:1:pos:R:3:forces:R:3 energy=3.526651620386773 pbc="F F F"
Pm       0.00000000       0.00000000       0.00000000       0.00000000       0.00000000     -28.48772621
Pm       0.00000000       0.00000000       0.99393939       0.00000000       0.00000000      28.48772621
2
Properties=species:S:1:pos:R:3:forces:R:3 energy=2.126474511399763 pbc="F F F"
Pm       0.00000000       0.00000000       0.00000000       0.00000000       0.00000000     -19.29704094
Pm       0.00000000       0.00000000       1.05353535       0.00000000       0.00000000      19.29704094
2
Properties=species:S:1:pos:R:3:forces:R:3 energy=1.1516190775948616 pbc="F F F"
Pm       0.00000000       0.00000000       0.00000000       0.00000000       0.00000000     -13.90488720
Pm       0.00000000       0.00000000       1.11313131       0.00000000       0.00000000      13.90488720
2
Properties=species:S:1:pos:R:3:forces:R:3 energy=0.4248999407643163 pbc="F F F"
Pm       0.00000000       0.00000000       0.00000000       0.00000000       0.00000000     -10.75298882
Pm       0.00000000       0.00000000       1.17272727       0.00000000       0.00000000      10.75298882
2
Properties=species:S:1:pos:R:3:forces:R:3 energy=-0.15218714062129454 pbc="F F F"
Pm       0.00000000       0.00000000       0.00000000       0.00000000       0.00000000      -8.72648811
Pm       0.00000000       0.00000000       1.23232323       0.00000000       0.00000000       8.72648811
2
Properties=species:S:1:pos:R:3:forces:R:3 energy=-0.6220061387417044 pbc="F F F"
Pm       0.00000000       0.00000000       0.00000000       0.00000000       0.00000000      -7.05225992
Pm       0.00000000       0.00000000       1.29191919       0.00000000       0.00000000       7.05225992
2
Properties=species:S:1:pos:R:3:forces:R:3 energy=-0.9907120512119124 pbc="F F F"
Pm       0.00000000       0.00000000       0.00000000       0.00000000       0.00000000      -5.28468037
Pm       0.00000000       0.00000000       1.35151515       0.00000000       0.00000000       5.28468037
2
Properties=species:S:1:pos:R:3:forces:R:3 energy=-1.2466142196585885 pbc="F F F"
Pm       0.00000000       0.00000000       0.00000000       0.00000000       0.00000000      -3.25709176
Pm       0.00000000       0.00000000       1.41111111       0.00000000       0.00000000       3.25709176
2
Properties=species:S:1:pos:R:3:forces:R:3 energy=-1.3740450065858336 pbc="F F F"
Pm       0.00000000       0.00000000       0.00000000       0.00000000       0.00000000      -0.98813462
Pm       0.00000000       0.00000000       1.47070707       0.00000000       0.00000000       0.98813462
2
Properties=species:S:1:pos:R:3:forces:R:3 energy=-1.3628599450391474 pbc="F F F"
Pm       0.00000000       0.00000000       0.00000000       0.00000000       0.00000000       1.35085201
Pm       0.00000000       0.00000000       1.53030303       0.00000000       0.00000000      -1.35085201
2
Properties=species:S:1:pos:R:3:forces:R:3 energy=-1.2188385069483572 pbc="F F F"
Pm       0.00000000       0.00000000       0.00000000       0.00000000       0.00000000       3.39311886
Pm       0.00000000       0.00000000       1.58989899       0.00000000       0.00000000      -3.39311886
2
Properties=species:S:1:pos:R:3:forces:R:3 energy=-0.973750480493866 pbc="F F F"
Pm       0.00000000       0.00000000       0.00000000       0.00000000       0.00000000       4.67161798
Pm       0.00000000       0.00000000       1.64949495       0.00000000       0.00000000      -4.67161798
2
Properties=species:S:1:pos:R:3:forces:R:3 energy=-0.6826333528944006 pbc="F F F"
Pm       0.00000000       0.00000000       0.00000000       0.00000000       0.00000000       4.92729712
Pm       0.00000000       0.00000000       1.70909091       0.00000000       0.00000000      -4.92729712
2
Properties=species:S:1:pos:R:3:forces:R:3 energy=-0.40429248097429793 pbc="F F F"
Pm       0.00000000       0.00000000       0.00000000       0.00000000       0.00000000       4.29342985
Pm       0.00000000       0.00000000       1.76868687       0.00000000       0.00000000      -4.29342985
2
Properties=species:S:1:pos:R:3:forces:R:3 energy=-0.18113928362642676 pbc="F F F"
Pm       0.00000000       0.00000000       0.00000000       0.00000000       0.00000000       3.14233136
Pm       0.00000000       0.00000000       1.82828283       0.00000000       0.00000000      -3.14233136
2
Properties=species:S:1:pos:R:3:forces:R:3 energy=-0.03288326958431942 pbc="F F F"
Pm       0.00000000       0.00000000       0.00000000       0.00000000       0.00000000       1.82866025
Pm       0.00000000       0.00000000       1.88787879       0.00000000       0.00000000      -1.82866025
2
Properties=species:S:1:pos:R:3:forces:R:3 energy=0.03811510409733143 pbc="F F F"
Pm       0.00000000       0.00000000       0.00000000       0.00000000       0.00000000       0.57651669
Pm       0.00000000       0.00000000       1.94747475       0.00000000       0.00000000      -0.57651669
2
Properties=species:S:1:pos:R:3:forces:R:3 energy=0.03950845333867109 pbc="F F F"
Pm       0.00000000       0.00000000       0.00000000       0.00000000       0.00000000      -0.49200231
Pm       0.00000000       0.00000000       2.00707071       0.00000000       0.00000000       0.49200231
2
Properties=species:S:1:pos:R:3:forces:R:3 energy=-0.015409230468675872 pbc="F F F"
Pm       0.00000000       0.00000000       0.00000000       0.00000000       0.00000000      -1.30443704
Pm       0.00000000       0.00000000       2.06666667       0.00000000       0.00000000       1.30443704
2
Properties=species:S:1:pos:R:3:forces:R:3 energy=-0.11042739554211817 pbc="F F F"
Pm       0.00000000       0.00000000       0.00000000       0.00000000       0.00000000      -1.84055471
Pm       0.00000000       0.00000000       2.12626263       0.00000000       0.00000000       1.84055471
2
Properties=species:S:1:pos:R:3:forces:R:3 energy=-0.2302644918443319 pbc="F F F"
Pm       0.00000000       0.00000000       0.00000000       0.00000000       0.00000000      -2.14971614
Pm       0.00000000       0.00000000       2.18585859       0.00000000       0.00000000       2.14971614
2
Properties=species:S:1:pos:R:3:forces:R:3 energy=-0.363641558282931 pbc="F F F"
Pm       0.00000000       0.00000000       0.00000000       0.00000000       0.00000000      -2.30622911
Pm       0.00000000       0.00000000       2.24545455       0.00000000       0.00000000       2.30622911
2
Properties=species:S:1:pos:R:3:forces:R:3 energy=-0.5031997209626078 pbc="F F F"
Pm       0.00000000       0.00000000       0.00000000       0.00000000       0.00000000      -2.36384821
Pm       0.00000000       0.00000000       2.30505051       0.00000000       0.00000000       2.36384821
2
Properties=species:S:1:pos:R:3:forces:R:3 energy=-0.6440390322518202 pbc="F F F"
Pm       0.00000000       0.00000000       0.00000000       0.00000000       0.00000000      -2.35290933
Pm       0.00000000       0.00000000       2.36464646       0.00000000       0.00000000       2.35290933
2
Properties=species:S:1:pos:R:3:forces:R:3 energy=-0.7826301115599725 pbc="F F F"
Pm       0.00000000       0.00000000       0.00000000       0.00000000       0.00000000      -2.29050303
Pm       0.00000000       0.00000000       2.42424242       0.00000000       0.00000000       2.29050303
2
Properties=species:S:1:pos:R:3:forces:R:3 energy=-0.9162280096837806 pbc="F F F"
Pm       0.00000000       0.00000000       0.00000000       0.00000000       0.00000000      -2.18663573
Pm       0.00000000       0.00000000       2.48383838       0.00000000       0.00000000       2.18663573
2
Properties=species:S:1:pos:R:3:forces:R:3 energy=-1.0425587911619563 pbc="F F F"
Pm       0.00000000       0.00000000       0.00000000       0.00000000       0.00000000      -2.04745698
Pm       0.00000000       0.00000000       2.54343434       0.00000000       0.00000000       2.04745698
2
Properties=species:S:1:pos:R:3:forces:R:3 energy=-1.1596607981866802 pbc="F F F"
Pm       0.00000000       0.00000000       0.00000000       0.00000000       0.00000000      -1.87776268
Pm       0.00000000       0.00000000       2.60303030       0.00000000       0.00000000       1.87776268
2
Properties=species:S:1:pos:R:3:forces:R:3 energy=-1.265873428507297 pbc="F F F"
Pm       0.00000000       0.00000000       0.00000000       0.00000000       0.00000000      -1.68302548
Pm       0.00000000       0.00000000       2.66262626       0.00000000       0.00000000       1.68302548
2
Properties=species:S:1:pos:R:3:forces:R:3 energy=-1.3599093166551384 pbc="F F F"
Pm       0.00000000       0.00000000       0.00000000       0.00000000       0.00000000      -1.47048485
Pm       0.00000000       0.00000000       2.72222222       0.00000000       0.00000000       1.47048485
2
Properties=species:S:1:pos:R:3:forces:R:3 energy=-1.4409632987377692 pbc="F F F"
Pm       0.00000000       0.00000000       0.00000000       0.00000000       0.00000000      -1.24888456
Pm       0.00000000       0.00000000       2.78181818       0.00000000       0.00000000       1.24888456
2
Properties=species:S:1:pos:R:3:forces:R:3 energy=-1.508764210291191 pbc="F F F"
Pm       0.00000000       0.00000000       0.00000000       0.00000000       0.00000000      -1.02713084
Pm       0.00000000       0.00000000       2.84141414       0.00000000       0.00000000       1.02713084
2
Properties=species:S:1:pos:R:3:forces:R:3 energy=-1.5635364652106447 pbc="F F F"
Pm       0.00000000       0.00000000       0.00000000       0.00000000       0.00000000      -0.81270701
Pm       0.00000000       0.00000000       2.90101010       0.00000000       0.00000000       0.81270701
2
Properties=species:S:1:pos:R:3:forces:R:3 energy=-1.605882353496151 pbc="F F F"
Pm       0.00000000       0.00000000       0.00000000       0.00000000       0.00000000      -0.61078012
Pm       0.00000000       0.00000000       2.96060606       0.00000000       0.00000000       0.61078012
2
Properties=species:S:1:pos:R:3:forces:R:3 energy=-1.6366444197195413 pbc="F F F"
Pm       0.00000000       0.00000000       0.00000000       0.00000000       0.00000000      -0.42432261
Pm       0.00000000       0.00000000       3.02020202       0.00000000       0.00000000       0.42432261
2
Properties=species:S:1:pos:R:3:forces:R:3 energy=-1.6567949795156018 pbc="F F F"
Pm       0.00000000       0.00000000       0.00000000       0.00000000       0.00000000      -0.25480983
Pm       0.00000000       0.00000000       3.07979798       0.00000000       0.00000000       0.25480983
2
Properties=species:S:1:pos:R:3:forces:R:3 energy=-1.6673668739920362 pbc="F F F"
Pm       0.00000000       0.00000000       0.00000000       0.00000000       0.00000000      -0.10293879
Pm       0.00000000       0.00000000       3.13939394       0.00000000       0.00000000       0.10293879
2
Properties=species:S:1:pos:R:3:forces:R:3 energy=-1.6694210903201718 pbc="F F F"
Pm       0.00000000       0.00000000       0.00000000       0.00000000       0.00000000       0.03098276
Pm       0.00000000       0.00000000       3.19898990       0.00000000       0.00000000      -0.03098276
2
Properties=species:S:1:pos:R:3:forces:R:3 energy=-1.664030772682965 pbc="F F F"
Pm       0.00000000       0.00000000       0.00000000       0.00000000       0.00000000       0.14692487
Pm       0.00000000       0.00000000       3.25858586       0.00000000       0.00000000      -0.14692487
2
Properties=species:S:1:pos:R:3:forces:R:3 energy=-1.6522619305449808 pbc="F F F"
Pm       0.00000000       0.00000000       0.00000000       0.00000000       0.00000000       0.24509302
Pm       0.00000000       0.00000000       3.31818182       0.00000000       0.00000000      -0.24509302
2
Properties=species:S:1:pos:R:3:forces:R:3 energy=-1.6351632931914912 pbc="F F F"
Pm       0.00000000       0.00000000       0.00000000       0.00000000       0.00000000       0.32588509
Pm       0.00000000       0.00000000       3.37777778       0.00000000       0.00000000      -0.32588509
2
Properties=species:S:1:pos:R:3:forces:R:3 energy=-1.6137545892042335 pbc="F F F"
Pm       0.00000000       0.00000000       0.00000000       0.00000000       0.00000000       0.38981146
Pm       0.00000000       0.00000000       3.43737374       0.00000000       0.00000000      -0.38981146
2
Properties=species:S:1:pos:R:3:forces:R:3 energy=-1.5890234850337486 pbc="F F F"
Pm       0.00000000       0.00000000       0.00000000       0.00000000       0.00000000       0.43750653
Pm       0.00000000       0.00000000       3.49696970       0.00000000       0.00000000      -0.43750653
2
Properties=species:S:1:pos:R:3:forces:R:3 energy=-1.5619134815046924 pbc="F F F"
Pm       0.00000000       0.00000000       0.00000000       0.00000000       0.00000000       0.46979392
Pm       0.00000000       0.00000000       3.55656566       0.00000000       0.00000000      -0.46979392
2
Properties=species:S:1:pos:R:3:forces:R:3 energy=-1.5333114296866075 pbc="F F F"
Pm       0.00000000       0.00000000       0.00000000       0.00000000       0.00000000       0.48782089
Pm       0.00000000       0.00000000       3.61616162       0.00000000       0.00000000      -0.48782089
2
Properties=species:S:1:pos:R:3:forces:R:3 energy=-1.5040199607018623 pbc="F F F"
Pm       0.00000000       0.00000000       0.00000000       0.00000000       0.00000000       0.49326929
Pm       0.00000000       0.00000000       3.67575758       0.00000000       0.00000000      -0.49326929
2
Properties=species:S:1:pos:R:3:forces:R:3 energy=-1.4747186563434322 pbc="F F F"
Pm       0.00000000       0.00000000       0.00000000       0.00000000       0.00000000       0.48863763
Pm       0.00000000       0.00000000       3.73535354       0.00000000       0.00000000      -0.48863763
2
Properties=species:S:1:pos:R:3:forces:R:3 energy=-1.4459101918185988 pbc="F F F"
Pm       0.00000000       0.00000000       0.00000000       0.00000000       0.00000000       0.47738680
Pm       0.00000000       0.00000000       3.79494949       0.00000000       0.00000000      -0.47738680
2
Properties=species:S:1:pos:R:3:forces:R:3 energy=-1.417866608037325 pbc="F F F"
Pm       0.00000000       0.00000000       0.00000000       0.00000000       0.00000000       0.46367860
Pm       0.00000000       0.00000000       3.85454545       0.00000000       0.00000000      -0.46367860
2
Properties=species:S:1:pos:R:3:forces:R:3 energy=-1.3906107121312963 pbc="F F F"
Pm       0.00000000       0.00000000       0.00000000       0.00000000       0.00000000       0.45159891
Pm       0.00000000       0.00000000       3.91414141       0.00000000       0.00000000      -0.45159891
2
Properties=species:S:1:pos:R:3:forces:R:3 energy=-1.3639466105351223 pbc="F F F"
Pm       0.00000000       0.00000000       0.00000000       0.00000000       0.00000000       0.44415224
Pm       0.00000000       0.00000000       3.97373737       0.00000000       0.00000000      -0.44415224
2
Properties=species:S:1:pos:R:3:forces:R:3 energy=-1.337554000702585 pbc="F F F"
Pm       0.00000000       0.00000000       0.00000000       0.00000000       0.00000000       0.44253567
Pm       0.00000000       0.00000000       4.03333333       0.00000000       0.00000000      -0.44253567
2
Properties=species:S:1:pos:R:3:forces:R:3 energy=-1.3110972832845367 pbc="F F F"
Pm       0.00000000       0.00000000       0.00000000       0.00000000       0.00000000       0.44603485
Pm       0.00000000       0.00000000       4.09292929       0.00000000       0.00000000      -0.44603485
2
Properties=species:S:1:pos:R:3:forces:R:3 energy=-1.284329225861561 pbc="F F F"
Pm       0.00000000       0.00000000       0.00000000       0.00000000       0.00000000       0.45256999
Pm       0.00000000       0.00000000       4.15252525       0.00000000       0.00000000      -0.45256999
2
Properties=species:S:1:pos:R:3:forces:R:3 energy=-1.257146382592325 pbc="F F F"
Pm       0.00000000       0.00000000       0.00000000       0.00000000       0.00000000       0.45953718
Pm       0.00000000       0.00000000       4.21212121       0.00000000       0.00000000      -0.45953718
2
Properties=species:S:1:pos:R:3:forces:R:3 energy=-1.2295946717076105 pbc="F F F"
Pm       0.00000000       0.00000000       0.00000000       0.00000000       0.00000000       0.46459195
Pm       0.00000000       0.00000000       4.27171717       0.00000000       0.00000000      -0.46459195
2
Properties=species:S:1:pos:R:3:forces:R:3 energy=-1.201840823469572 pbc="F F F"
Pm       0.00000000       0.00000000       0.00000000       0.00000000       0.00000000       0.46615562
Pm       0.00000000       0.00000000       4.33131313       0.00000000       0.00000000      -0.46615562
2
Properties=species:S:1:pos:R:3:forces:R:3 energy=-1.1741153042646213 pbc="F F F"
Pm       0.00000000       0.00000000       0.00000000       0.00000000       0.00000000       0.46359286
Pm       0.00000000       0.00000000       4.39090909       0.00000000       0.00000000      -0.46359286
2
Properties=species:S:1:pos:R:3:forces:R:3 energy=-1.1466610059237634 pbc="F F F"
Pm       0.00000000       0.00000000       0.00000000       0.00000000       0.00000000       0.45716929
Pm       0.00000000       0.00000000       4.45050505       0.00000000       0.00000000      -0.45716929
2
Properties=species:S:1:pos:R:3:forces:R:3 energy=-1.1196824142159998 pbc="F F F"
Pm       0.00000000       0.00000000       0.00000000       0.00000000       0.00000000       0.44784576
Pm       0.00000000       0.00000000       4.51010101       0.00000000       0.00000000      -0.44784576
2
Properties=species:S:1:pos:R:3:forces:R:3 energy=-1.0933116900536524 pbc="F F F"
Pm       0.00000000       0.00000000       0.00000000       0.00000000       0.00000000       0.43699241
Pm       0.00000000       0.00000000       4.56969697       0.00000000       0.00000000      -0.43699241
2
Properties=species:S:1:pos:R:3:forces:R:3 energy=-1.067598105383055 pbc="F F F"
Pm       0.00000000       0.00000000       0.00000000       0.00000000       0.00000000       0.42603654
Pm       0.00000000       0.00000000       4.62929293       0.00000000       0.00000000      -0.42603654
2
Properties=species:S:1:pos:R:3:forces:R:3 energy=-1.042510138266612 pbc="F F F"
Pm       0.00000000       0.00000000       0.00000000       0.00000000       0.00000000       0.41617247
Pm       0.00000000       0.00000000       4.68888889       0.00000000       0.00000000      -0.41617247
2
Properties=species:S:1:pos:R:3:forces:R:3 energy=-1.017957214490958 pbc="F F F"
Pm       0.00000000       0.00000000       0.00000000       0.00000000       0.00000000       0.40812740
Pm       0.00000000       0.00000000       4.74848485       0.00000000       0.00000000      -0.40812740
2
Properties=species:S:1:pos:R:3:forces:R:3 energy=-0.9938242454147544 pbc="F F F"
Pm       0.00000000       0.00000000       0.00000000       0.00000000       0.00000000       0.40210253
Pm       0.00000000       0.00000000       4.80808081       0.00000000       0.00000000      -0.40210253
2
Properties=species:S:1:pos:R:3:forces:R:3 energy=-0.9699946034354089 pbc="F F F"
Pm       0.00000000       0.00000000       0.00000000       0.00000000       0.00000000       0.39783362
Pm       0.00000000       0.00000000       4.86767677       0.00000000       0.00000000      -0.39783362
2
Properties=species:S:1:pos:R:3:forces:R:3 energy=-0.9463817645518549 pbc="F F F"
Pm       0.00000000       0.00000000       0.00000000       0.00000000       0.00000000       0.39471942
Pm       0.00000000       0.00000000       4.92727273       0.00000000       0.00000000      -0.39471942
2
Properties=species:S:1:pos:R:3:forces:R:3 energy=-0.9229402540284113 pbc="F F F"
Pm       0.00000000       0.00000000       0.00000000       0.00000000       0.00000000       0.39195037
Pm       0.00000000       0.00000000       4.98686869       0.00000000       0.00000000      -0.39195037
2
Properties=species:S:1:pos:R:3:forces:R:3 energy=-0.8996780948460505 pbc="F F F"
Pm       0.00000000       0.00000000       0.00000000       0.00000000       0.00000000       0.38860956
Pm       0.00000000       0.00000000       5.04646465       0.00000000       0.00000000      -0.38860956
2
Properties=species:S:1:pos:R:3:forces:R:3 energy=-0.8766535029364058 pbc="F F F"
Pm       0.00000000       0.00000000       0.00000000       0.00000000       0.00000000       0.38371485
Pm       0.00000000       0.00000000       5.10606061       0.00000000       0.00000000      -0.38371485
2
Properties=species:S:1:pos:R:3:forces:R:3 energy=-0.8539898211891391 pbc="F F F"
Pm       0.00000000       0.00000000       0.00000000       0.00000000       0.00000000       0.37624550
Pm       0.00000000       0.00000000       5.16565657       0.00000000       0.00000000      -0.37624550
2
Properties=species:S:1:pos:R:3:forces:R:3 energy=-0.8318765531537293 pbc="F F F"
Pm       0.00000000       0.00000000       0.00000000       0.00000000       0.00000000       0.36523589
Pm       0.00000000       0.00000000       5.22525253       0.00000000       0.00000000      -0.36523589
2
Properties=species:S:1:pos:R:3:forces:R:3 energy=-0.8105450279213168 pbc="F F F"
Pm       0.00000000       0.00000000       0.00000000       0.00000000       0.00000000       0.34988564
Pm       0.00000000       0.00000000       5.28484848       0.00000000       0.00000000      -0.34988564
2
Properties=species:S:1:pos:R:3:forces:R:3 energy=-0.7902688490354383 pbc="F F F"
Pm       0.00000000       0.00000000       0.00000000       0.00000000       0.00000000       0.32971793
Pm       0.00000000       0.00000000       5.34444444       0.00000000       0.00000000      -0.32971793
2
Properties=species:S:1:pos:R:3:forces:R:3 energy=-0.7713411205979729 pbc="F F F"
Pm       0.00000000       0.00000000       0.00000000       0.00000000       0.00000000       0.30468273
Pm       0.00000000       0.00000000       5.40404040       0.00000000       0.00000000      -0.30468273
2
Properties=species:S:1:pos:R:3:forces:R:3 energy=-0.7540375862560932 pbc="F F F"
Pm       0.00000000       0.00000000       0.00000000       0.00000000       0.00000000       0.27524272
Pm       0.00000000       0.00000000       5.46363636       0.00000000       0.00000000      -0.27524272
2
Properties=species:S:1:pos:R:3:forces:R:3 energy=-0.7386076746663086 pbc="F F F"
Pm       0.00000000       0.00000000       0.00000000       0.00000000       0.00000000       0.24233724
Pm       0.00000000       0.00000000       5.52323232       0.00000000       0.00000000      -0.24233724
2
Properties=species:S:1:pos:R:3:forces:R:3 energy=-0.7251994851731162 pbc="F F F"
Pm       0.00000000       0.00000000       0.00000000       0.00000000       0.00000000       0.20735753
Pm       0.00000000       0.00000000       5.58282828       0.00000000       0.00000000      -0.20735753
2
Properties=species:S:1:pos:R:3:forces:R:3 energy=-0.7139007807974136 pbc="F F F"
Pm       0.00000000       0.00000000       0.00000000       0.00000000       0.00000000       0.17194827
Pm       0.00000000       0.00000000       5.64242424       0.00000000       0.00000000      -0.17194827
2
Properties=species:S:1:pos:R:3:forces:R:3 energy=-0.7046743742177165 pbc="F F F"
Pm       0.00000000       0.00000000       0.00000000       0.00000000       0.00000000       0.13788173
Pm       0.00000000       0.00000000       5.70202020       0.00000000       0.00000000      -0.13788173
2
Properties=species:S:1:pos:R:3:forces:R:3 energy=-0.6974057659685166 pbc="F F F"
Pm       0.00000000       0.00000000       0.00000000       0.00000000       0.00000000       0.10690124
Pm       0.00000000       0.00000000       5.76161616       0.00000000       0.00000000      -0.10690124
2
Properties=species:S:1:pos:R:3:forces:R:3 energy=-0.6918421550494356 pbc="F F F"
Pm       0.00000000       0.00000000       0.00000000       0.00000000       0.00000000       0.08061048
Pm       0.00000000       0.00000000       5.82121212       0.00000000       0.00000000      -0.08061048
2
Properties=species:S:1:pos:R:3:forces:R:3 energy=-0.6876798256701104 pbc="F F F"
Pm       0.00000000       0.00000000       0.00000000       0.00000000       0.00000000       0.06037029
Pm       0.00000000       0.00000000       5.88080808       0.00000000       0.00000000      -0.06037029
2
Properties=species:S:1:pos:R:3:forces:R:3 energy=-0.6845022574540316 pbc="F F F"
Pm       0.00000000       0.00000000       0.00000000       0.00000000       0.00000000       0.04728699
Pm       0.00000000       0.00000000       5.94040404       0.00000000       0.00000000      -0.04728699
2
Properties=species:S:1:pos:R:3:forces:R:3 energy=-0.6818779455801096 pbc="F F F"
Pm       0.00000000       0.00000000       0.00000000       0.00000000       0.00000000       0.04226183
Pm       0.00000000       0.00000000       6.00000000       0.00000000       0.00000000      -0.04226183
