2
Properties=species:S:1:pos:R:3:forces:R:3 energy=57071.9454198199 pbc="F F F"
Pr       0.00000000       0.00000000       0.00000000       0.00000000       0.00000000 -1416613.37500000
Pr       0.00000000       0.00000000       0.10000000       0.00000000       0.00000000 1416613.37500000
2
Properties=species:S:1:pos:R:3:forces:R:3 energy=15865.993271382402 pbc="F F F"
Pr       0.00000000       0.00000000       0.00000000       0.00000000       0.00000000 -301090.90625000
Pr       0.00000000       0.00000000       0.15959596       0.00000000       0.00000000  301090.90625000
2
Properties=species:S:1:pos:R:3:forces:R:3 energy=5555.644150288652 pbc="F F F"
Pr       0.00000000       0.00000000       0.00000000       0.00000000       0.00000000  -92553.92187500
Pr       0.00000000       0.00000000       0.21919192       0.00000000       0.00000000   92553.92187500
2
Properties=species:S:1:pos:R:3:forces:R:3 energy=2080.265244038652 pbc="F F F"
Pr       0.00000000       0.00000000       0.00000000       0.00000000       0.00000000  -34803.02343750
Pr       0.00000000       0.00000000       0.27878788       0.00000000       0.00000000   34803.02343750
2
Properties=species:S:1:pos:R:3:forces:R:3 energy=698.9256444419483 pbc="F F F"
Pr       0.00000000       0.00000000       0.00000000       0.00000000       0.00000000  -14750.95019531
Pr       0.00000000       0.00000000       0.33838384       0.00000000       0.00000000   14750.95019531
2
Properties=species:S:1:pos:R:3:forces:R:3 energy=91.69735006938974 pbc="F F F"
Pr       0.00000000       0.00000000       0.00000000       0.00000000       0.00000000   -6765.91845703
Pr       0.00000000       0.00000000       0.39797980       0.00000000       0.00000000    6765.91845703
2
Properties=species:S:1:pos:R:3:forces:R:3 energy=-194.28387399066884 pbc="F F F"
Pr       0.00000000       0.00000000       0.00000000       0.00000000       0.00000000   -3285.46777344
Pr       0.00000000       0.00000000       0.45757576       0.00000000       0.00000000    3285.46777344
2
Properties=species:S:1:pos:R:3:forces:R:3 energy=-335.7982324985054 pbc="F F F"
Pr       0.00000000       0.00000000       0.00000000       0.00000000       0.00000000   -1658.71191406
Pr       0.00000000       0.00000000       0.51717172       0.00000000       0.00000000    1658.71191406
2
Properties=species:S:1:pos:R:3:forces:R:3 energy=-407.79182378175653 pbc="F F F"
Pr       0.00000000       0.00000000       0.00000000       0.00000000       0.00000000    -845.26446533
Pr       0.00000000       0.00000000       0.57676768       0.00000000       0.00000000     845.26446533
2
Properties=species:S:1:pos:R:3:forces:R:3 energy=-443.7707360972583 pbc="F F F"
Pr       0.00000000       0.00000000       0.00000000       0.00000000       0.00000000    -402.67080688
Pr       0.00000000       0.00000000       0.63636364       0.00000000       0.00000000     402.67080688
2
Properties=species:S:1:pos:R:3:forces:R:3 energy=-459.0898888532618 pbc="F F F"
Pr       0.00000000       0.00000000       0.00000000       0.00000000       0.00000000    -129.49639893
Pr       0.00000000       0.00000000       0.69595960       0.00000000       0.00000000     129.49639893
2
Properties=species:S:1:pos:R:3:forces:R:3 energy=-460.5876914735952 pbc="F F F"
Pr       0.00000000       0.00000000       0.00000000       0.00000000       0.00000000      72.52809143
Pr       0.00000000       0.00000000       0.75555556       0.00000000       0.00000000     -72.52809143
2
Properties=species:S:1:pos:R:3:forces:R:3 energy=-450.8324422727597 pbc="F F F"
Pr       0.00000000       0.00000000       0.00000000       0.00000000       0.00000000     254.23017883
Pr       0.00000000       0.00000000       0.81515152       0.00000000       0.00000000    -254.23017883
2
Properties=species:S:1:pos:R:3:forces:R:3 energy=-430.18043397536456 pbc="F F F"
Pr       0.00000000       0.00000000       0.00000000       0.00000000       0.00000000     440.68020630
Pr       0.00000000       0.00000000       0.87474747       0.00000000       0.00000000    -440.68020630
2
Properties=species:S:1:pos:R:3:forces:R:3 energy=-398.09074245845915 pbc="F F F"
Pr       0.00000000       0.00000000       0.00000000       0.00000000       0.00000000     637.32580566
Pr       0.00000000       0.00000000       0.93434343       0.00000000       0.00000000    -637.32580566
2
Properties=species:S:1:pos:R:3:forces:R:3 energy=-354.2898996917939 pbc="F F F"
Pr       0.00000000       0.00000000       0.00000000       0.00000000       0.00000000     829.59442139
Pr       0.00000000       0.00000000       0.99393939       0.00000000       0.00000000    -829.59442139
2
Properties=species:S:1:pos:R:3:forces:R:3 energy=-299.9627506080582 pbc="F F F"
Pr       0.00000000       0.00000000       0.00000000       0.00000000       0.00000000     983.61059570
Pr       0.00000000       0.00000000       1.05353535       0.00000000       0.00000000    -983.61059570
2
Properties=species:S:1:pos:R:3:forces:R:3 energy=-238.68285775329454 pbc="F F F"
Pr       0.00000000       0.00000000       0.00000000       0.00000000       0.00000000    1055.84497070
Pr       0.00000000       0.00000000       1.11313131       0.00000000       0.00000000   -1055.84497070
2
Properties=species:S:1:pos:R:3:forces:R:3 energy=-176.70130448885513 pbc="F F F"
Pr       0.00000000       0.00000000       0.00000000       0.00000000       0.00000000     965.92901611
Pr       0.00000000       0.00000000       1.17272727       0.00000000       0.00000000    -965.92901611
2
Properties=species:S:1:pos:R:3:forces:R:3 energy=-122.45034931932668 pbc="F F F"
Pr       0.00000000       0.00000000       0.00000000       0.00000000       0.00000000     834.94488525
Pr       0.00000000       0.00000000       1.23232323       0.00000000       0.00000000    -834.94488525
2
Properties=species:S:1:pos:R:3:forces:R:3 energy=-78.2533487970994 pbc="F F F"
Pr       0.00000000       0.00000000       0.00000000       0.00000000       0.00000000     650.85601807
Pr       0.00000000       0.00000000       1.29191919       0.00000000       0.00000000    -650.85601807
2
Properties=species:S:1:pos:R:3:forces:R:3 energy=-44.96656123847958 pbc="F F F"
Pr       0.00000000       0.00000000       0.00000000       0.00000000       0.00000000     466.37728882
Pr       0.00000000       0.00000000       1.35151515       0.00000000       0.00000000    -466.37728882
2
Properties=species:S:1:pos:R:3:forces:R:3 energy=-21.593009677008595 pbc="F F F"
Pr       0.00000000       0.00000000       0.00000000       0.00000000       0.00000000     413.47665405
Pr       0.00000000       0.00000000       1.41111111       0.00000000       0.00000000    -413.47665405
2
Properties=species:S:1:pos:R:3:forces:R:3 energy=-1.466102793181052 pbc="F F F"
Pr       0.00000000       0.00000000       0.00000000       0.00000000       0.00000000     297.12454224
Pr       0.00000000       0.00000000       1.47070707       0.00000000       0.00000000    -297.12454224
2
Properties=species:S:1:pos:R:3:forces:R:3 energy=16.370816459875464 pbc="F F F"
Pr       0.00000000       0.00000000       0.00000000       0.00000000       0.00000000     221.67129517
Pr       0.00000000       0.00000000       1.53030303       0.00000000       0.00000000    -221.67129517
2
Properties=species:S:1:pos:R:3:forces:R:3 energy=24.300011932661185 pbc="F F F"
Pr       0.00000000       0.00000000       0.00000000       0.00000000       0.00000000      49.10462570
Pr       0.00000000       0.00000000       1.58989899       0.00000000       0.00000000     -49.10462570
2
Properties=species:S:1:pos:R:3:forces:R:3 energy=23.937493037956237 pbc="F F F"
Pr       0.00000000       0.00000000       0.00000000       0.00000000       0.00000000     -43.67668152
Pr       0.00000000       0.00000000       1.64949495       0.00000000       0.00000000      43.67668152
2
Properties=species:S:1:pos:R:3:forces:R:3 energy=20.149961129942444 pbc="F F F"
Pr       0.00000000       0.00000000       0.00000000       0.00000000       0.00000000     -78.80846405
Pr       0.00000000       0.00000000       1.70909091       0.00000000       0.00000000      78.80846405
2
Properties=species:S:1:pos:R:3:forces:R:3 energy=14.971503617794308 pbc="F F F"
Pr       0.00000000       0.00000000       0.00000000       0.00000000       0.00000000     -92.07501221
Pr       0.00000000       0.00000000       1.76868687       0.00000000       0.00000000      92.07501221
2
Properties=species:S:1:pos:R:3:forces:R:3 energy=9.467622985042095 pbc="F F F"
Pr       0.00000000       0.00000000       0.00000000       0.00000000       0.00000000     -90.38085938
Pr       0.00000000       0.00000000       1.82828283       0.00000000       0.00000000      90.38085938
2
Properties=species:S:1:pos:R:3:forces:R:3 energy=4.48348953151128 pbc="F F F"
Pr       0.00000000       0.00000000       0.00000000       0.00000000       0.00000000     -74.35938263
Pr       0.00000000       0.00000000       1.88787879       0.00000000       0.00000000      74.35938263
2
Properties=species:S:1:pos:R:3:forces:R:3 energy=0.8567151933936833 pbc="F F F"
Pr       0.00000000       0.00000000       0.00000000       0.00000000       0.00000000     -46.24742126
Pr       0.00000000       0.00000000       1.94747475       0.00000000       0.00000000      46.24742126
2
Properties=species:S:1:pos:R:3:forces:R:3 energy=-1.0810758565237222 pbc="F F F"
Pr       0.00000000       0.00000000       0.00000000       0.00000000       0.00000000     -20.54580879
Pr       0.00000000       0.00000000       2.00707071       0.00000000       0.00000000      20.54580879
2
Properties=species:S:1:pos:R:3:forces:R:3 energy=-1.8509174281397804 pbc="F F F"
Pr       0.00000000       0.00000000       0.00000000       0.00000000       0.00000000      -7.29141712
Pr       0.00000000       0.00000000       2.06666667       0.00000000       0.00000000       7.29141712
2
Properties=species:S:1:pos:R:3:forces:R:3 energy=-2.1226343047358345 pbc="F F F"
Pr       0.00000000       0.00000000       0.00000000       0.00000000       0.00000000      -2.73251748
Pr       0.00000000       0.00000000       2.12626263       0.00000000       0.00000000       2.73251748
2
Properties=species:S:1:pos:R:3:forces:R:3 energy=-2.2400988842378675 pbc="F F F"
Pr       0.00000000       0.00000000       0.00000000       0.00000000       0.00000000      -1.49003577
Pr       0.00000000       0.00000000       2.18585859       0.00000000       0.00000000       1.49003577
2
Properties=species:S:1:pos:R:3:forces:R:3 energy=-2.3186467128147266 pbc="F F F"
Pr       0.00000000       0.00000000       0.00000000       0.00000000       0.00000000      -1.22332585
Pr       0.00000000       0.00000000       2.24545455       0.00000000       0.00000000       1.22332585
2
Properties=species:S:1:pos:R:3:forces:R:3 energy=-2.3907313838024464 pbc="F F F"
Pr       0.00000000       0.00000000       0.00000000       0.00000000       0.00000000      -1.21305048
Pr       0.00000000       0.00000000       2.30505051       0.00000000       0.00000000       1.21305048
2
Properties=species:S:1:pos:R:3:forces:R:3 energy=-2.4638788110612353 pbc="F F F"
Pr       0.00000000       0.00000000       0.00000000       0.00000000       0.00000000      -1.23954332
Pr       0.00000000       0.00000000       2.36464646       0.00000000       0.00000000       1.23954332
2
Properties=species:S:1:pos:R:3:forces:R:3 energy=-2.537799471400619 pbc="F F F"
Pr       0.00000000       0.00000000       0.00000000       0.00000000       0.00000000      -1.23366702
Pr       0.00000000       0.00000000       2.42424242       0.00000000       0.00000000       1.23366702
2
Properties=species:S:1:pos:R:3:forces:R:3 energy=-2.609980938504275 pbc="F F F"
Pr       0.00000000       0.00000000       0.00000000       0.00000000       0.00000000      -1.18104422
Pr       0.00000000       0.00000000       2.48383838       0.00000000       0.00000000       1.18104422
2
Properties=species:S:1:pos:R:3:forces:R:3 energy=-2.6777634180314185 pbc="F F F"
Pr       0.00000000       0.00000000       0.00000000       0.00000000       0.00000000      -1.08789372
Pr       0.00000000       0.00000000       2.54343434       0.00000000       0.00000000       1.08789372
2
Properties=species:S:1:pos:R:3:forces:R:3 energy=-2.7390997626905347 pbc="F F F"
Pr       0.00000000       0.00000000       0.00000000       0.00000000       0.00000000      -0.96714497
Pr       0.00000000       0.00000000       2.60303030       0.00000000       0.00000000       0.96714497
2
Properties=species:S:1:pos:R:3:forces:R:3 energy=-2.7927685550926546 pbc="F F F"
Pr       0.00000000       0.00000000       0.00000000       0.00000000       0.00000000      -0.83281237
Pr       0.00000000       0.00000000       2.66262626       0.00000000       0.00000000       0.83281237
2
Properties=species:S:1:pos:R:3:forces:R:3 energy=-2.8383396891128467 pbc="F F F"
Pr       0.00000000       0.00000000       0.00000000       0.00000000       0.00000000      -0.69709963
Pr       0.00000000       0.00000000       2.72222222       0.00000000       0.00000000       0.69709963
2
Properties=species:S:1:pos:R:3:forces:R:3 energy=-2.875995327872697 pbc="F F F"
Pr       0.00000000       0.00000000       0.00000000       0.00000000       0.00000000      -0.56811166
Pr       0.00000000       0.00000000       2.78181818       0.00000000       0.00000000       0.56811166
2
Properties=species:S:1:pos:R:3:forces:R:3 energy=-2.9062402021600278 pbc="F F F"
Pr       0.00000000       0.00000000       0.00000000       0.00000000       0.00000000      -0.44832057
Pr       0.00000000       0.00000000       2.84141414       0.00000000       0.00000000       0.44832057
2
Properties=species:S:1:pos:R:3:forces:R:3 energy=-2.9295509703908644 pbc="F F F"
Pr       0.00000000       0.00000000       0.00000000       0.00000000       0.00000000      -0.33431691
Pr       0.00000000       0.00000000       2.90101010       0.00000000       0.00000000       0.33431691
2
Properties=species:S:1:pos:R:3:forces:R:3 energy=-2.946045684095689 pbc="F F F"
Pr       0.00000000       0.00000000       0.00000000       0.00000000       0.00000000      -0.21812004
Pr       0.00000000       0.00000000       2.96060606       0.00000000       0.00000000       0.21812004
2
Properties=species:S:1:pos:R:3:forces:R:3 energy=-2.9553066279079694 pbc="F F F"
Pr       0.00000000       0.00000000       0.00000000       0.00000000       0.00000000      -0.08981105
Pr       0.00000000       0.00000000       3.02020202       0.00000000       0.00000000       0.08981105
2
Properties=species:S:1:pos:R:3:forces:R:3 energy=-2.9563391261710392 pbc="F F F"
Pr       0.00000000       0.00000000       0.00000000       0.00000000       0.00000000       0.05909046
Pr       0.00000000       0.00000000       3.07979798       0.00000000       0.00000000      -0.05909046
2
Properties=species:S:1:pos:R:3:forces:R:3 energy=-2.9477685250336814 pbc="F F F"
Pr       0.00000000       0.00000000       0.00000000       0.00000000       0.00000000       0.23269612
Pr       0.00000000       0.00000000       3.13939394       0.00000000       0.00000000      -0.23269612
2
Properties=species:S:1:pos:R:3:forces:R:3 energy=-2.9281436993013257 pbc="F F F"
Pr       0.00000000       0.00000000       0.00000000       0.00000000       0.00000000       0.42928261
Pr       0.00000000       0.00000000       3.19898990       0.00000000       0.00000000      -0.42928261
2
Properties=species:S:1:pos:R:3:forces:R:3 energy=-2.896279233782216 pbc="F F F"
Pr       0.00000000       0.00000000       0.00000000       0.00000000       0.00000000       0.64195669
Pr       0.00000000       0.00000000       3.25858586       0.00000000       0.00000000      -0.64195669
2
Properties=species:S:1:pos:R:3:forces:R:3 energy=-2.851503667713406 pbc="F F F"
Pr       0.00000000       0.00000000       0.00000000       0.00000000       0.00000000       0.86080956
Pr       0.00000000       0.00000000       3.31818182       0.00000000       0.00000000      -0.86080956
2
Properties=species:S:1:pos:R:3:forces:R:3 energy=-2.793770909929029 pbc="F F F"
Pr       0.00000000       0.00000000       0.00000000       0.00000000       0.00000000       1.07501543
Pr       0.00000000       0.00000000       3.37777778       0.00000000       0.00000000      -1.07501543
2
Properties=species:S:1:pos:R:3:forces:R:3 energy=-2.7236787618176406 pbc="F F F"
Pr       0.00000000       0.00000000       0.00000000       0.00000000       0.00000000       1.27374279
Pr       0.00000000       0.00000000       3.43737374       0.00000000       0.00000000      -1.27374279
2
Properties=species:S:1:pos:R:3:forces:R:3 energy=-2.6424743122505165 pbc="F F F"
Pr       0.00000000       0.00000000       0.00000000       0.00000000       0.00000000       1.44608891
Pr       0.00000000       0.00000000       3.49696970       0.00000000       0.00000000      -1.44608891
2
Properties=species:S:1:pos:R:3:forces:R:3 energy=-2.5520521799525806 pbc="F F F"
Pr       0.00000000       0.00000000       0.00000000       0.00000000       0.00000000       1.58138156
Pr       0.00000000       0.00000000       3.55656566       0.00000000       0.00000000      -1.58138156
2
Properties=species:S:1:pos:R:3:forces:R:3 energy=-2.4549041484975778 pbc="F F F"
Pr       0.00000000       0.00000000       0.00000000       0.00000000       0.00000000       1.67062235
Pr       0.00000000       0.00000000       3.61616162       0.00000000       0.00000000      -1.67062235
2
Properties=species:S:1:pos:R:3:forces:R:3 energy=-2.3539487407014597 pbc="F F F"
Pr       0.00000000       0.00000000       0.00000000       0.00000000       0.00000000       1.70875835
Pr       0.00000000       0.00000000       3.67575758       0.00000000       0.00000000      -1.70875835
2
Properties=species:S:1:pos:R:3:forces:R:3 energy=-2.2522377450305116 pbc="F F F"
Pr       0.00000000       0.00000000       0.00000000       0.00000000       0.00000000       1.69658101
Pr       0.00000000       0.00000000       3.73535354       0.00000000       0.00000000      -1.69658101
2
Properties=species:S:1:pos:R:3:forces:R:3 energy=-2.152591455846095 pbc="F F F"
Pr       0.00000000       0.00000000       0.00000000       0.00000000       0.00000000       1.64113724
Pr       0.00000000       0.00000000       3.79494949       0.00000000       0.00000000      -1.64113724
2
Properties=species:S:1:pos:R:3:forces:R:3 energy=-2.057253841279748 pbc="F F F"
Pr       0.00000000       0.00000000       0.00000000       0.00000000       0.00000000       1.55422413
Pr       0.00000000       0.00000000       3.85454545       0.00000000       0.00000000      -1.55422413
2
Properties=species:S:1:pos:R:3:forces:R:3 energy=-1.9676920182009678 pbc="F F F"
Pr       0.00000000       0.00000000       0.00000000       0.00000000       0.00000000       1.44961798
Pr       0.00000000       0.00000000       3.91414141       0.00000000       0.00000000      -1.44961798
2
Properties=species:S:1:pos:R:3:forces:R:3 energy=-1.884567745693932 pbc="F F F"
Pr       0.00000000       0.00000000       0.00000000       0.00000000       0.00000000       1.34000289
Pr       0.00000000       0.00000000       3.97373737       0.00000000       0.00000000      -1.34000289
2
Properties=species:S:1:pos:R:3:forces:R:3 energy=-1.8078828833974228 pbc="F F F"
Pr       0.00000000       0.00000000       0.00000000       0.00000000       0.00000000       1.23485219
Pr       0.00000000       0.00000000       4.03333333       0.00000000       0.00000000      -1.23485219
2
Properties=species:S:1:pos:R:3:forces:R:3 energy=-1.7371840560160046 pbc="F F F"
Pr       0.00000000       0.00000000       0.00000000       0.00000000       0.00000000       1.13964951
Pr       0.00000000       0.00000000       4.09292929       0.00000000       0.00000000      -1.13964951
2
Properties=species:S:1:pos:R:3:forces:R:3 energy=-1.6718054648038592 pbc="F F F"
Pr       0.00000000       0.00000000       0.00000000       0.00000000       0.00000000       1.05641353
Pr       0.00000000       0.00000000       4.15252525       0.00000000       0.00000000      -1.05641353
2
Properties=species:S:1:pos:R:3:forces:R:3 energy=-1.6110358997794458 pbc="F F F"
Pr       0.00000000       0.00000000       0.00000000       0.00000000       0.00000000       0.98486084
Pr       0.00000000       0.00000000       4.21212121       0.00000000       0.00000000      -0.98486084
2
Properties=species:S:1:pos:R:3:forces:R:3 energy=-1.5542139626052753 pbc="F F F"
Pr       0.00000000       0.00000000       0.00000000       0.00000000       0.00000000       0.92358857
Pr       0.00000000       0.00000000       4.27171717       0.00000000       0.00000000      -0.92358857
2
Properties=species:S:1:pos:R:3:forces:R:3 energy=-1.5007801507120586 pbc="F F F"
Pr       0.00000000       0.00000000       0.00000000       0.00000000       0.00000000       0.87095076
Pr       0.00000000       0.00000000       4.33131313       0.00000000       0.00000000      -0.87095076
2
Properties=species:S:1:pos:R:3:forces:R:3 energy=-1.45026169754405 pbc="F F F"
Pr       0.00000000       0.00000000       0.00000000       0.00000000       0.00000000       0.82548881
Pr       0.00000000       0.00000000       4.39090909       0.00000000       0.00000000      -0.82548881
2
Properties=species:S:1:pos:R:3:forces:R:3 energy=-1.402266231460027 pbc="F F F"
Pr       0.00000000       0.00000000       0.00000000       0.00000000       0.00000000       0.78614277
Pr       0.00000000       0.00000000       4.45050505       0.00000000       0.00000000      -0.78614277
2
Properties=species:S:1:pos:R:3:forces:R:3 energy=-1.3564513266793008 pbc="F F F"
Pr       0.00000000       0.00000000       0.00000000       0.00000000       0.00000000       0.75227976
Pr       0.00000000       0.00000000       4.51010101       0.00000000       0.00000000      -0.75227976
2
Properties=species:S:1:pos:R:3:forces:R:3 energy=-1.3124972118580056 pbc="F F F"
Pr       0.00000000       0.00000000       0.00000000       0.00000000       0.00000000       0.72361898
Pr       0.00000000       0.00000000       4.56969697       0.00000000       0.00000000      -0.72361898
2
Properties=species:S:1:pos:R:3:forces:R:3 energy=-1.2700989149472766 pbc="F F F"
Pr       0.00000000       0.00000000       0.00000000       0.00000000       0.00000000       0.70010257
Pr       0.00000000       0.00000000       4.62929293       0.00000000       0.00000000      -0.70010257
2
Properties=species:S:1:pos:R:3:forces:R:3 energy=-1.2289499263528898 pbc="F F F"
Pr       0.00000000       0.00000000       0.00000000       0.00000000       0.00000000       0.68170232
Pr       0.00000000       0.00000000       4.68888889       0.00000000       0.00000000      -0.68170232
2
Properties=species:S:1:pos:R:3:forces:R:3 energy=-1.1887481720710276 pbc="F F F"
Pr       0.00000000       0.00000000       0.00000000       0.00000000       0.00000000       0.66818887
Pr       0.00000000       0.00000000       4.74848485       0.00000000       0.00000000      -0.66818887
2
Properties=species:S:1:pos:R:3:forces:R:3 energy=-1.1492214864623773 pbc="F F F"
Pr       0.00000000       0.00000000       0.00000000       0.00000000       0.00000000       0.65898502
Pr       0.00000000       0.00000000       4.80808081       0.00000000       0.00000000      -0.65898502
2
Properties=species:S:1:pos:R:3:forces:R:3 energy=-1.1101369039931295 pbc="F F F"
Pr       0.00000000       0.00000000       0.00000000       0.00000000       0.00000000       0.65305901
Pr       0.00000000       0.00000000       4.86767677       0.00000000       0.00000000      -0.65305901
2
Properties=species:S:1:pos:R:3:forces:R:3 energy=-1.0713454199873 pbc="F F F"
Pr       0.00000000       0.00000000       0.00000000       0.00000000       0.00000000       0.64888638
Pr       0.00000000       0.00000000       4.92727273       0.00000000       0.00000000      -0.64888638
2
Properties=species:S:1:pos:R:3:forces:R:3 energy=-1.032797950584348 pbc="F F F"
Pr       0.00000000       0.00000000       0.00000000       0.00000000       0.00000000       0.64452308
Pr       0.00000000       0.00000000       4.98686869       0.00000000       0.00000000      -0.64452308
2
Properties=species:S:1:pos:R:3:forces:R:3 energy=-0.9945753518893632 pbc="F F F"
Pr       0.00000000       0.00000000       0.00000000       0.00000000       0.00000000       0.63774359
Pr       0.00000000       0.00000000       5.04646465       0.00000000       0.00000000      -0.63774359
2
Properties=species:S:1:pos:R:3:forces:R:3 energy=-0.9568791103930858 pbc="F F F"
Pr       0.00000000       0.00000000       0.00000000       0.00000000       0.00000000       0.62633020
Pr       0.00000000       0.00000000       5.10606061       0.00000000       0.00000000      -0.62633020
2
Properties=species:S:1:pos:R:3:forces:R:3 energy=-0.9200468387636551 pbc="F F F"
Pr       0.00000000       0.00000000       0.00000000       0.00000000       0.00000000       0.60833085
Pr       0.00000000       0.00000000       5.16565657       0.00000000       0.00000000      -0.60833085
2
Properties=species:S:1:pos:R:3:forces:R:3 energy=-0.8845253650574398 pbc="F F F"
Pr       0.00000000       0.00000000       0.00000000       0.00000000       0.00000000       0.58241230
Pr       0.00000000       0.00000000       5.22525253       0.00000000       0.00000000      -0.58241230
2
Properties=species:S:1:pos:R:3:forces:R:3 energy=-0.8507985909239748 pbc="F F F"
Pr       0.00000000       0.00000000       0.00000000       0.00000000       0.00000000       0.54806995
Pr       0.00000000       0.00000000       5.28484848       0.00000000       0.00000000      -0.54806995
2
Properties=species:S:1:pos:R:3:forces:R:3 energy=-0.8193590982042694 pbc="F F F"
Pr       0.00000000       0.00000000       0.00000000       0.00000000       0.00000000       0.50571412
Pr       0.00000000       0.00000000       5.34444444       0.00000000       0.00000000      -0.50571412
2
Properties=species:S:1:pos:R:3:forces:R:3 energy=-0.7906553596383633 pbc="F F F"
Pr       0.00000000       0.00000000       0.00000000       0.00000000       0.00000000       0.45655775
Pr       0.00000000       0.00000000       5.40404040       0.00000000       0.00000000      -0.45655775
2
Properties=species:S:1:pos:R:3:forces:R:3 energy=-0.7650340821668953 pbc="F F F"
Pr       0.00000000       0.00000000       0.00000000       0.00000000       0.00000000       0.40247902
Pr       0.00000000       0.00000000       5.46363636       0.00000000       0.00000000      -0.40247902
2
Properties=species:S:1:pos:R:3:forces:R:3 energy=-0.7427427244133672 pbc="F F F"
Pr       0.00000000       0.00000000       0.00000000       0.00000000       0.00000000       0.34570894
Pr       0.00000000       0.00000000       5.52323232       0.00000000       0.00000000      -0.34570894
2
Properties=species:S:1:pos:R:3:forces:R:3 energy=-0.7238417459757454 pbc="F F F"
Pr       0.00000000       0.00000000       0.00000000       0.00000000       0.00000000       0.28865573
Pr       0.00000000       0.00000000       5.58282828       0.00000000       0.00000000      -0.28865573
2
Properties=species:S:1:pos:R:3:forces:R:3 energy=-0.7082969225978716 pbc="F F F"
Pr       0.00000000       0.00000000       0.00000000       0.00000000       0.00000000       0.23362662
Pr       0.00000000       0.00000000       5.64242424       0.00000000       0.00000000      -0.23362662
2
Properties=species:S:1:pos:R:3:forces:R:3 energy=-0.695909145737158 pbc="F F F"
Pr       0.00000000       0.00000000       0.00000000       0.00000000       0.00000000       0.18272464
Pr       0.00000000       0.00000000       5.70202020       0.00000000       0.00000000      -0.18272464
2
Properties=species:S:1:pos:R:3:forces:R:3 energy=-0.6863995699234897 pbc="F F F"
Pr       0.00000000       0.00000000       0.00000000       0.00000000       0.00000000       0.13785248
Pr       0.00000000       0.00000000       5.76161616       0.00000000       0.00000000      -0.13785248
2
Properties=species:S:1:pos:R:3:forces:R:3 energy=-0.6793308712716788 pbc="F F F"
Pr       0.00000000       0.00000000       0.00000000       0.00000000       0.00000000       0.10062461
Pr       0.00000000       0.00000000       5.82121212       0.00000000       0.00000000      -0.10062461
2
Properties=species:S:1:pos:R:3:forces:R:3 energy=-0.6742289437430085 pbc="F F F"
Pr       0.00000000       0.00000000       0.00000000       0.00000000       0.00000000       0.07246628
Pr       0.00000000       0.00000000       5.88080808       0.00000000       0.00000000      -0.07246628
2
Properties=species:S:1:pos:R:3:forces:R:3 energy=-0.6704885464084477 pbc="F F F"
Pr       0.00000000       0.00000000       0.00000000       0.00000000       0.00000000       0.05452565
Pr       0.00000000       0.00000000       5.94040404       0.00000000       0.00000000      -0.05452565
2
Properties=species:S:1:pos:R:3:forces:R:3 energy=-0.6675005098480447 pbc="F F F"
Pr       0.00000000       0.00000000       0.00000000       0.00000000       0.00000000       0.04782233
Pr       0.00000000       0.00000000       6.00000000       0.00000000       0.00000000      -0.04782233
