2
Properties=species:S:1:pos:R:3:forces:R:3 energy=84834.24316065571 pbc="F F F"
Re       0.00000000       0.00000000       0.00000000       0.00000000       0.00000000 -2112409.25000000
Re       0.00000000       0.00000000       0.10000000       0.00000000       0.00000000 2112409.25000000
2
Properties=species:S:1:pos:R:3:forces:R:3 energy=24227.813473155707 pbc="F F F"
Re       0.00000000       0.00000000       0.00000000       0.00000000       0.00000000 -434077.21875000
Re       0.00000000       0.00000000       0.15959596       0.00000000       0.00000000  434077.21875000
2
Properties=species:S:1:pos:R:3:forces:R:3 energy=9520.579098155706 pbc="F F F"
Re       0.00000000       0.00000000       0.00000000       0.00000000       0.00000000 -130011.28906250
Re       0.00000000       0.00000000       0.21919192       0.00000000       0.00000000  130011.28906250
2
Properties=species:S:1:pos:R:3:forces:R:3 energy=4691.817867686956 pbc="F F F"
Re       0.00000000       0.00000000       0.00000000       0.00000000       0.00000000  -47610.59375000
Re       0.00000000       0.00000000       0.27878788       0.00000000       0.00000000   47610.59375000
2
Properties=species:S:1:pos:R:3:forces:R:3 energy=2824.1249965932057 pbc="F F F"
Re       0.00000000       0.00000000       0.00000000       0.00000000       0.00000000  -19636.90429688
Re       0.00000000       0.00000000       0.33838384       0.00000000       0.00000000   19636.90429688
2
Properties=species:S:1:pos:R:3:forces:R:3 energy=2024.6956753073111 pbc="F F F"
Re       0.00000000       0.00000000       0.00000000       0.00000000       0.00000000   -8788.22753906
Re       0.00000000       0.00000000       0.39797980       0.00000000       0.00000000    8788.22753906
2
Properties=species:S:1:pos:R:3:forces:R:3 energy=1655.9846157433344 pbc="F F F"
Re       0.00000000       0.00000000       0.00000000       0.00000000       0.00000000   -4211.59863281
Re       0.00000000       0.00000000       0.45757576       0.00000000       0.00000000    4211.59863281
2
Properties=species:S:1:pos:R:3:forces:R:3 energy=1473.2297329403377 pbc="F F F"
Re       0.00000000       0.00000000       0.00000000       0.00000000       0.00000000   -2193.13842773
Re       0.00000000       0.00000000       0.51717172       0.00000000       0.00000000    2193.13842773
2
Properties=species:S:1:pos:R:3:forces:R:3 energy=1371.84923979845 pbc="F F F"
Re       0.00000000       0.00000000       0.00000000       0.00000000       0.00000000   -1344.78063965
Re       0.00000000       0.00000000       0.57676768       0.00000000       0.00000000    1344.78063965
2
Properties=species:S:1:pos:R:3:forces:R:3 energy=1300.440060145796 pbc="F F F"
Re       0.00000000       0.00000000       0.00000000       0.00000000       0.00000000   -1135.77783203
Re       0.00000000       0.00000000       0.63636364       0.00000000       0.00000000    1135.77783203
2
Properties=species:S:1:pos:R:3:forces:R:3 energy=1227.8305631293365 pbc="F F F"
Re       0.00000000       0.00000000       0.00000000       0.00000000       0.00000000   -1364.45483398
Re       0.00000000       0.00000000       0.69595960       0.00000000       0.00000000    1364.45483398
2
Properties=species:S:1:pos:R:3:forces:R:3 energy=1131.2775846992429 pbc="F F F"
Re       0.00000000       0.00000000       0.00000000       0.00000000       0.00000000   -1920.20056152
Re       0.00000000       0.00000000       0.75555556       0.00000000       0.00000000    1920.20056152
2
Properties=species:S:1:pos:R:3:forces:R:3 energy=995.6414153955297 pbc="F F F"
Re       0.00000000       0.00000000       0.00000000       0.00000000       0.00000000   -2631.09204102
Re       0.00000000       0.00000000       0.81515152       0.00000000       0.00000000    2631.09204102
2
Properties=species:S:1:pos:R:3:forces:R:3 energy=821.5253267089081 pbc="F F F"
Re       0.00000000       0.00000000       0.00000000       0.00000000       0.00000000   -3186.68872070
Re       0.00000000       0.00000000       0.87474747       0.00000000       0.00000000    3186.68872070
2
Properties=species:S:1:pos:R:3:forces:R:3 energy=621.8633396639821 pbc="F F F"
Re       0.00000000       0.00000000       0.00000000       0.00000000       0.00000000   -3454.68652344
Re       0.00000000       0.00000000       0.93434343       0.00000000       0.00000000    3454.68652344
2
Properties=species:S:1:pos:R:3:forces:R:3 energy=417.15844500558245 pbc="F F F"
Re       0.00000000       0.00000000       0.00000000       0.00000000       0.00000000   -3275.91113281
Re       0.00000000       0.00000000       0.99393939       0.00000000       0.00000000    3275.91113281
2
Properties=species:S:1:pos:R:3:forces:R:3 energy=240.2722913186224 pbc="F F F"
Re       0.00000000       0.00000000       0.00000000       0.00000000       0.00000000   -2618.14013672
Re       0.00000000       0.00000000       1.05353535       0.00000000       0.00000000    2618.14013672
2
Properties=species:S:1:pos:R:3:forces:R:3 energy=114.66264231299064 pbc="F F F"
Re       0.00000000       0.00000000       0.00000000       0.00000000       0.00000000   -1649.41467285
Re       0.00000000       0.00000000       1.11313131       0.00000000       0.00000000    1649.41467285
2
Properties=species:S:1:pos:R:3:forces:R:3 energy=49.55274937264232 pbc="F F F"
Re       0.00000000       0.00000000       0.00000000       0.00000000       0.00000000    -642.17687988
Re       0.00000000       0.00000000       1.17272727       0.00000000       0.00000000     642.17687988
2
Properties=species:S:1:pos:R:3:forces:R:3 energy=21.05929841873998 pbc="F F F"
Re       0.00000000       0.00000000       0.00000000       0.00000000       0.00000000    -325.99285889
Re       0.00000000       0.00000000       1.23232323       0.00000000       0.00000000     325.99285889
2
Properties=species:S:1:pos:R:3:forces:R:3 energy=8.894554522952866 pbc="F F F"
Re       0.00000000       0.00000000       0.00000000       0.00000000       0.00000000    -131.14602661
Re       0.00000000       0.00000000       1.29191919       0.00000000       0.00000000     131.14602661
2
Properties=species:S:1:pos:R:3:forces:R:3 energy=2.467873872221597 pbc="F F F"
Re       0.00000000       0.00000000       0.00000000       0.00000000       0.00000000     -89.74093628
Re       0.00000000       0.00000000       1.35151515       0.00000000       0.00000000      89.74093628
2
Properties=species:S:1:pos:R:3:forces:R:3 energy=-2.035948545121115 pbc="F F F"
Re       0.00000000       0.00000000       0.00000000       0.00000000       0.00000000     -62.82017517
Re       0.00000000       0.00000000       1.41111111       0.00000000       0.00000000      62.82017517
2
Properties=species:S:1:pos:R:3:forces:R:3 energy=-5.197495255921807 pbc="F F F"
Re       0.00000000       0.00000000       0.00000000       0.00000000       0.00000000     -44.71075439
Re       0.00000000       0.00000000       1.47070707       0.00000000       0.00000000      44.71075439
2
Properties=species:S:1:pos:R:3:forces:R:3 energy=-7.498572430703286 pbc="F F F"
Re       0.00000000       0.00000000       0.00000000       0.00000000       0.00000000     -33.20364761
Re       0.00000000       0.00000000       1.53030303       0.00000000       0.00000000      33.20364761
2
Properties=species:S:1:pos:R:3:forces:R:3 energy=-9.192750009884843 pbc="F F F"
Re       0.00000000       0.00000000       0.00000000       0.00000000       0.00000000     -23.77400780
Re       0.00000000       0.00000000       1.58989899       0.00000000       0.00000000      23.77400780
2
Properties=species:S:1:pos:R:3:forces:R:3 energy=-10.355561701957697 pbc="F F F"
Re       0.00000000       0.00000000       0.00000000       0.00000000       0.00000000     -15.59191036
Re       0.00000000       0.00000000       1.64949495       0.00000000       0.00000000      15.59191036
2
Properties=species:S:1:pos:R:3:forces:R:3 energy=-11.104627469713938 pbc="F F F"
Re       0.00000000       0.00000000       0.00000000       0.00000000       0.00000000     -10.02947044
Re       0.00000000       0.00000000       1.70909091       0.00000000       0.00000000      10.02947044
2
Properties=species:S:1:pos:R:3:forces:R:3 energy=-11.602586661808603 pbc="F F F"
Re       0.00000000       0.00000000       0.00000000       0.00000000       0.00000000      -7.03544188
Re       0.00000000       0.00000000       1.76868687       0.00000000       0.00000000       7.03544188
2
Properties=species:S:1:pos:R:3:forces:R:3 energy=-11.974940777883594 pbc="F F F"
Re       0.00000000       0.00000000       0.00000000       0.00000000       0.00000000      -5.64645052
Re       0.00000000       0.00000000       1.82828283       0.00000000       0.00000000       5.64645052
2
Properties=species:S:1:pos:R:3:forces:R:3 energy=-12.289951008833832 pbc="F F F"
Re       0.00000000       0.00000000       0.00000000       0.00000000       0.00000000      -4.98986006
Re       0.00000000       0.00000000       1.88787879       0.00000000       0.00000000       4.98986006
2
Properties=species:S:1:pos:R:3:forces:R:3 energy=-12.57227847266024 pbc="F F F"
Re       0.00000000       0.00000000       0.00000000       0.00000000       0.00000000      -4.47134018
Re       0.00000000       0.00000000       1.94747475       0.00000000       0.00000000       4.47134018
2
Properties=species:S:1:pos:R:3:forces:R:3 energy=-12.8185037525984 pbc="F F F"
Re       0.00000000       0.00000000       0.00000000       0.00000000       0.00000000      -3.73934388
Re       0.00000000       0.00000000       2.00707071       0.00000000       0.00000000       3.73934388
2
Properties=species:S:1:pos:R:3:forces:R:3 energy=-13.011186901726207 pbc="F F F"
Re       0.00000000       0.00000000       0.00000000       0.00000000       0.00000000      -2.67232919
Re       0.00000000       0.00000000       2.06666667       0.00000000       0.00000000       2.67232919
2
Properties=species:S:1:pos:R:3:forces:R:3 energy=-13.131729334695008 pbc="F F F"
Re       0.00000000       0.00000000       0.00000000       0.00000000       0.00000000      -1.34218836
Re       0.00000000       0.00000000       2.12626263       0.00000000       0.00000000       1.34218836
2
Properties=species:S:1:pos:R:3:forces:R:3 energy=-13.169395976404925 pbc="F F F"
Re       0.00000000       0.00000000       0.00000000       0.00000000       0.00000000       0.07732823
Re       0.00000000       0.00000000       2.18585859       0.00000000       0.00000000      -0.07732823
2
Properties=species:S:1:pos:R:3:forces:R:3 energy=-13.124163006213704 pbc="F F F"
Re       0.00000000       0.00000000       0.00000000       0.00000000       0.00000000       1.41599369
Re       0.00000000       0.00000000       2.24545455       0.00000000       0.00000000      -1.41599369
2
Properties=species:S:1:pos:R:3:forces:R:3 energy=-13.004424400926617 pbc="F F F"
Re       0.00000000       0.00000000       0.00000000       0.00000000       0.00000000       2.56524968
Re       0.00000000       0.00000000       2.30505051       0.00000000       0.00000000      -2.56524968
2
Properties=species:S:1:pos:R:3:forces:R:3 energy=-12.823213714421815 pbc="F F F"
Re       0.00000000       0.00000000       0.00000000       0.00000000       0.00000000       3.47332954
Re       0.00000000       0.00000000       2.36464646       0.00000000       0.00000000      -3.47332954
2
Properties=species:S:1:pos:R:3:forces:R:3 energy=-12.595758906908683 pbc="F F F"
Re       0.00000000       0.00000000       0.00000000       0.00000000       0.00000000       4.11320305
Re       0.00000000       0.00000000       2.42424242       0.00000000       0.00000000      -4.11320305
2
Properties=species:S:1:pos:R:3:forces:R:3 energy=-12.338732325132217 pbc="F F F"
Re       0.00000000       0.00000000       0.00000000       0.00000000       0.00000000       4.46244001
Re       0.00000000       0.00000000       2.48383838       0.00000000       0.00000000      -4.46244001
2
Properties=species:S:1:pos:R:3:forces:R:3 energy=-12.06992861576888 pbc="F F F"
Re       0.00000000       0.00000000       0.00000000       0.00000000       0.00000000       4.50783014
Re       0.00000000       0.00000000       2.54343434       0.00000000       0.00000000      -4.50783014
2
Properties=species:S:1:pos:R:3:forces:R:3 energy=-11.807217728333317 pbc="F F F"
Re       0.00000000       0.00000000       0.00000000       0.00000000       0.00000000       4.26360273
Re       0.00000000       0.00000000       2.60303030       0.00000000       0.00000000      -4.26360273
2
Properties=species:S:1:pos:R:3:forces:R:3 energy=-11.566411369104582 pbc="F F F"
Re       0.00000000       0.00000000       0.00000000       0.00000000       0.00000000       3.78565264
Re       0.00000000       0.00000000       2.66262626       0.00000000       0.00000000      -3.78565264
2
Properties=species:S:1:pos:R:3:forces:R:3 energy=-11.358751248531503 pbc="F F F"
Re       0.00000000       0.00000000       0.00000000       0.00000000       0.00000000       3.16982055
Re       0.00000000       0.00000000       2.72222222       0.00000000       0.00000000      -3.16982055
2
Properties=species:S:1:pos:R:3:forces:R:3 energy=-11.189007551715324 pbc="F F F"
Re       0.00000000       0.00000000       0.00000000       0.00000000       0.00000000       2.53300524
Re       0.00000000       0.00000000       2.78181818       0.00000000       0.00000000      -2.53300524
2
Properties=species:S:1:pos:R:3:forces:R:3 energy=-11.055065087395407 pbc="F F F"
Re       0.00000000       0.00000000       0.00000000       0.00000000       0.00000000       1.98402596
Re       0.00000000       0.00000000       2.84141414       0.00000000       0.00000000      -1.98402596
2
Properties=species:S:1:pos:R:3:forces:R:3 energy=-10.949374846333917 pbc="F F F"
Re       0.00000000       0.00000000       0.00000000       0.00000000       0.00000000       1.59147751
Re       0.00000000       0.00000000       2.90101010       0.00000000       0.00000000      -1.59147751
2
Properties=species:S:1:pos:R:3:forces:R:3 energy=-10.86208096139299 pbc="F F F"
Re       0.00000000       0.00000000       0.00000000       0.00000000       0.00000000       1.36332130
Re       0.00000000       0.00000000       2.96060606       0.00000000       0.00000000      -1.36332130
2
Properties=species:S:1:pos:R:3:forces:R:3 energy=-10.784266344749238 pbc="F F F"
Re       0.00000000       0.00000000       0.00000000       0.00000000       0.00000000       1.26654744
Re       0.00000000       0.00000000       3.02020202       0.00000000       0.00000000      -1.26654744
2
Properties=species:S:1:pos:R:3:forces:R:3 energy=-10.70929716585297 pbc="F F F"
Re       0.00000000       0.00000000       0.00000000       0.00000000       0.00000000       1.26166832
Re       0.00000000       0.00000000       3.07979798       0.00000000       0.00000000      -1.26166832
2
Properties=species:S:1:pos:R:3:forces:R:3 energy=-10.632756181504082 pbc="F F F"
Re       0.00000000       0.00000000       0.00000000       0.00000000       0.00000000       1.31380892
Re       0.00000000       0.00000000       3.13939394       0.00000000       0.00000000      -1.31380892
2
Properties=species:S:1:pos:R:3:forces:R:3 energy=-10.552180560700082 pbc="F F F"
Re       0.00000000       0.00000000       0.00000000       0.00000000       0.00000000       1.39228880
Re       0.00000000       0.00000000       3.19898990       0.00000000       0.00000000      -1.39228880
2
Properties=species:S:1:pos:R:3:forces:R:3 energy=-10.466818452077087 pbc="F F F"
Re       0.00000000       0.00000000       0.00000000       0.00000000       0.00000000       1.47029018
Re       0.00000000       0.00000000       3.25858586       0.00000000       0.00000000      -1.47029018
2
Properties=species:S:1:pos:R:3:forces:R:3 energy=-10.377396945077146 pbc="F F F"
Re       0.00000000       0.00000000       0.00000000       0.00000000       0.00000000       1.52515721
Re       0.00000000       0.00000000       3.31818182       0.00000000       0.00000000      -1.52515721
2
Properties=species:S:1:pos:R:3:forces:R:3 energy=-10.28584329748505 pbc="F F F"
Re       0.00000000       0.00000000       0.00000000       0.00000000       0.00000000       1.53945053
Re       0.00000000       0.00000000       3.37777778       0.00000000       0.00000000      -1.53945053
2
Properties=species:S:1:pos:R:3:forces:R:3 energy=-10.194920367151868 pbc="F F F"
Re       0.00000000       0.00000000       0.00000000       0.00000000       0.00000000       1.50309515
Re       0.00000000       0.00000000       3.43737374       0.00000000       0.00000000      -1.50309515
2
Properties=species:S:1:pos:R:3:forces:R:3 energy=-10.107706352001573 pbc="F F F"
Re       0.00000000       0.00000000       0.00000000       0.00000000       0.00000000       1.41576922
Re       0.00000000       0.00000000       3.49696970       0.00000000       0.00000000      -1.41576922
2
Properties=species:S:1:pos:R:3:forces:R:3 energy=-10.02698686534 pbc="F F F"
Re       0.00000000       0.00000000       0.00000000       0.00000000       0.00000000       1.28762841
Re       0.00000000       0.00000000       3.55656566       0.00000000       0.00000000      -1.28762841
2
Properties=species:S:1:pos:R:3:forces:R:3 energy=-9.954683814660177 pbc="F F F"
Re       0.00000000       0.00000000       0.00000000       0.00000000       0.00000000       1.13677847
Re       0.00000000       0.00000000       3.61616162       0.00000000       0.00000000      -1.13677847
2
Properties=species:S:1:pos:R:3:forces:R:3 energy=-9.891531421799487 pbc="F F F"
Re       0.00000000       0.00000000       0.00000000       0.00000000       0.00000000       0.98387337
Re       0.00000000       0.00000000       3.67575758       0.00000000       0.00000000      -0.98387337
2
Properties=species:S:1:pos:R:3:forces:R:3 energy=-9.837107450109942 pbc="F F F"
Re       0.00000000       0.00000000       0.00000000       0.00000000       0.00000000       0.84619349
Re       0.00000000       0.00000000       3.73535354       0.00000000       0.00000000      -0.84619349
2
Properties=species:S:1:pos:R:3:forces:R:3 energy=-9.790164804351955 pbc="F F F"
Re       0.00000000       0.00000000       0.00000000       0.00000000       0.00000000       0.73375255
Re       0.00000000       0.00000000       3.79494949       0.00000000       0.00000000      -0.73375255
2
Properties=species:S:1:pos:R:3:forces:R:3 energy=-9.749102766183878 pbc="F F F"
Re       0.00000000       0.00000000       0.00000000       0.00000000       0.00000000       0.64863360
Re       0.00000000       0.00000000       3.85454545       0.00000000       0.00000000      -0.64863360
2
Properties=species:S:1:pos:R:3:forces:R:3 energy=-9.712386775587975 pbc="F F F"
Re       0.00000000       0.00000000       0.00000000       0.00000000       0.00000000       0.58690012
Re       0.00000000       0.00000000       3.91414141       0.00000000       0.00000000      -0.58690012
2
Properties=species:S:1:pos:R:3:forces:R:3 energy=-9.67882390969934 pbc="F F F"
Re       0.00000000       0.00000000       0.00000000       0.00000000       0.00000000       0.54149377
Re       0.00000000       0.00000000       3.97373737       0.00000000       0.00000000      -0.54149377
2
Properties=species:S:1:pos:R:3:forces:R:3 energy=-9.647672561687912 pbc="F F F"
Re       0.00000000       0.00000000       0.00000000       0.00000000       0.00000000       0.50481969
Re       0.00000000       0.00000000       4.03333333       0.00000000       0.00000000      -0.50481969
2
Properties=species:S:1:pos:R:3:forces:R:3 energy=-9.618610281928795 pbc="F F F"
Re       0.00000000       0.00000000       0.00000000       0.00000000       0.00000000       0.47037643
Re       0.00000000       0.00000000       4.09292929       0.00000000       0.00000000      -0.47037643
2
Properties=species:S:1:pos:R:3:forces:R:3 energy=-9.59165557037266 pbc="F F F"
Re       0.00000000       0.00000000       0.00000000       0.00000000       0.00000000       0.43352833
Re       0.00000000       0.00000000       4.15252525       0.00000000       0.00000000      -0.43352833
2
Properties=species:S:1:pos:R:3:forces:R:3 energy=-9.567038864415967 pbc="F F F"
Re       0.00000000       0.00000000       0.00000000       0.00000000       0.00000000       0.39166713
Re       0.00000000       0.00000000       4.21212121       0.00000000       0.00000000      -0.39166713
2
Properties=species:S:1:pos:R:3:forces:R:3 energy=-9.545087641656762 pbc="F F F"
Re       0.00000000       0.00000000       0.00000000       0.00000000       0.00000000       0.34407833
Re       0.00000000       0.00000000       4.27171717       0.00000000       0.00000000      -0.34407833
2
Properties=species:S:1:pos:R:3:forces:R:3 energy=-9.526123993436343 pbc="F F F"
Re       0.00000000       0.00000000       0.00000000       0.00000000       0.00000000       0.29165709
Re       0.00000000       0.00000000       4.33131313       0.00000000       0.00000000      -0.29165709
2
Properties=species:S:1:pos:R:3:forces:R:3 energy=-9.510379022233973 pbc="F F F"
Re       0.00000000       0.00000000       0.00000000       0.00000000       0.00000000       0.23649980
Re       0.00000000       0.00000000       4.39090909       0.00000000       0.00000000      -0.23649980
2
Properties=species:S:1:pos:R:3:forces:R:3 energy=-9.497932699996326 pbc="F F F"
Re       0.00000000       0.00000000       0.00000000       0.00000000       0.00000000       0.18145163
Re       0.00000000       0.00000000       4.45050505       0.00000000       0.00000000      -0.18145163
2
Properties=species:S:1:pos:R:3:forces:R:3 energy=-9.488687073389793 pbc="F F F"
Re       0.00000000       0.00000000       0.00000000       0.00000000       0.00000000       0.12962304
Re       0.00000000       0.00000000       4.51010101       0.00000000       0.00000000      -0.12962304
2
Properties=species:S:1:pos:R:3:forces:R:3 energy=-9.482360614614478 pbc="F F F"
Re       0.00000000       0.00000000       0.00000000       0.00000000       0.00000000       0.08393967
Re       0.00000000       0.00000000       4.56969697       0.00000000       0.00000000      -0.08393967
2
Properties=species:S:1:pos:R:3:forces:R:3 energy=-9.478512072765596 pbc="F F F"
Re       0.00000000       0.00000000       0.00000000       0.00000000       0.00000000       0.04679190
Re       0.00000000       0.00000000       4.62929293       0.00000000       0.00000000      -0.04679190
2
Properties=species:S:1:pos:R:3:forces:R:3 energy=-9.476582216923644 pbc="F F F"
Re       0.00000000       0.00000000       0.00000000       0.00000000       0.00000000       0.01975529
Re       0.00000000       0.00000000       4.68888889       0.00000000       0.00000000      -0.01975529
2
Properties=species:S:1:pos:R:3:forces:R:3 energy=-9.475944393564474 pbc="F F F"
Re       0.00000000       0.00000000       0.00000000       0.00000000       0.00000000       0.00342004
Re       0.00000000       0.00000000       4.74848485       0.00000000       0.00000000      -0.00342004
2
Properties=species:S:1:pos:R:3:forces:R:3 energy=-9.47596929404943 pbc="F F F"
Re       0.00000000       0.00000000       0.00000000       0.00000000       0.00000000      -0.00265666
Re       0.00000000       0.00000000       4.80808081       0.00000000       0.00000000       0.00265666
2
Properties=species:S:1:pos:R:3:forces:R:3 energy=-9.476084079265135 pbc="F F F"
Re       0.00000000       0.00000000       0.00000000       0.00000000       0.00000000       0.00013225
Re       0.00000000       0.00000000       4.86767677       0.00000000       0.00000000      -0.00013225
2
Properties=species:S:1:pos:R:3:forces:R:3 energy=-9.475818925931327 pbc="F F F"
Re       0.00000000       0.00000000       0.00000000       0.00000000       0.00000000       0.00969786
Re       0.00000000       0.00000000       4.92727273       0.00000000       0.00000000      -0.00969786
2
Properties=species:S:1:pos:R:3:forces:R:3 energy=-9.474842280872323 pbc="F F F"
Re       0.00000000       0.00000000       0.00000000       0.00000000       0.00000000       0.02360202
Re       0.00000000       0.00000000       4.98686869       0.00000000       0.00000000      -0.02360202
2
Properties=species:S:1:pos:R:3:forces:R:3 energy=-9.472968401712551 pbc="F F F"
Re       0.00000000       0.00000000       0.00000000       0.00000000       0.00000000       0.03941913
Re       0.00000000       0.00000000       5.04646465       0.00000000       0.00000000      -0.03941913
2
Properties=species:S:1:pos:R:3:forces:R:3 energy=-9.47014769975613 pbc="F F F"
Re       0.00000000       0.00000000       0.00000000       0.00000000       0.00000000       0.05503387
Re       0.00000000       0.00000000       5.10606061       0.00000000       0.00000000      -0.05503387
2
Properties=species:S:1:pos:R:3:forces:R:3 energy=-9.466445790830132 pbc="F F F"
Re       0.00000000       0.00000000       0.00000000       0.00000000       0.00000000       0.06878643
Re       0.00000000       0.00000000       5.16565657       0.00000000       0.00000000      -0.06878643
2
Properties=species:S:1:pos:R:3:forces:R:3 energy=-9.46200902362503 pbc="F F F"
Re       0.00000000       0.00000000       0.00000000       0.00000000       0.00000000       0.07952070
Re       0.00000000       0.00000000       5.22525253       0.00000000       0.00000000      -0.07952070
2
Properties=species:S:1:pos:R:3:forces:R:3 energy=-9.457041559832863 pbc="F F F"
Re       0.00000000       0.00000000       0.00000000       0.00000000       0.00000000       0.08656044
Re       0.00000000       0.00000000       5.28484848       0.00000000       0.00000000      -0.08656044
2
Properties=species:S:1:pos:R:3:forces:R:3 energy=-9.451771022864929 pbc="F F F"
Re       0.00000000       0.00000000       0.00000000       0.00000000       0.00000000       0.08963895
Re       0.00000000       0.00000000       5.34444444       0.00000000       0.00000000      -0.08963895
2
Properties=species:S:1:pos:R:3:forces:R:3 energy=-9.44643415630707 pbc="F F F"
Re       0.00000000       0.00000000       0.00000000       0.00000000       0.00000000       0.08883911
Re       0.00000000       0.00000000       5.40404040       0.00000000       0.00000000      -0.08883911
2
Properties=species:S:1:pos:R:3:forces:R:3 energy=-9.441251069961416 pbc="F F F"
Re       0.00000000       0.00000000       0.00000000       0.00000000       0.00000000       0.08453956
Re       0.00000000       0.00000000       5.46363636       0.00000000       0.00000000      -0.08453956
2
Properties=species:S:1:pos:R:3:forces:R:3 energy=-9.436416634602756 pbc="F F F"
Re       0.00000000       0.00000000       0.00000000       0.00000000       0.00000000       0.07734683
Re       0.00000000       0.00000000       5.52323232       0.00000000       0.00000000      -0.07734683
2
Properties=species:S:1:pos:R:3:forces:R:3 energy=-9.432074802464106 pbc="F F F"
Re       0.00000000       0.00000000       0.00000000       0.00000000       0.00000000       0.06805613
Re       0.00000000       0.00000000       5.58282828       0.00000000       0.00000000      -0.06805613
2
Properties=species:S:1:pos:R:3:forces:R:3 energy=-9.428329001035596 pbc="F F F"
Re       0.00000000       0.00000000       0.00000000       0.00000000       0.00000000       0.05754338
Re       0.00000000       0.00000000       5.64242424       0.00000000       0.00000000      -0.05754338
2
Properties=species:S:1:pos:R:3:forces:R:3 energy=-9.425221274190678 pbc="F F F"
Re       0.00000000       0.00000000       0.00000000       0.00000000       0.00000000       0.04672176
Re       0.00000000       0.00000000       5.70202020       0.00000000       0.00000000      -0.04672176
2
Properties=species:S:1:pos:R:3:forces:R:3 energy=-9.422749441988163 pbc="F F F"
Re       0.00000000       0.00000000       0.00000000       0.00000000       0.00000000       0.03643439
Re       0.00000000       0.00000000       5.76161616       0.00000000       0.00000000      -0.03643439
2
Properties=species:S:1:pos:R:3:forces:R:3 energy=-9.420853746063976 pbc="F F F"
Re       0.00000000       0.00000000       0.00000000       0.00000000       0.00000000       0.02744277
Re       0.00000000       0.00000000       5.82121212       0.00000000       0.00000000      -0.02744277
2
Properties=species:S:1:pos:R:3:forces:R:3 energy=-9.419441738614134 pbc="F F F"
Re       0.00000000       0.00000000       0.00000000       0.00000000       0.00000000       0.02034193
Re       0.00000000       0.00000000       5.88080808       0.00000000       0.00000000      -0.02034193
2
Properties=species:S:1:pos:R:3:forces:R:3 energy=-9.418381586083694 pbc="F F F"
Re       0.00000000       0.00000000       0.00000000       0.00000000       0.00000000       0.01559281
Re       0.00000000       0.00000000       5.94040404       0.00000000       0.00000000      -0.01559281
2
Properties=species:S:1:pos:R:3:forces:R:3 energy=-9.417528838571862 pbc="F F F"
Re       0.00000000       0.00000000       0.00000000       0.00000000       0.00000000       0.01352419
Re       0.00000000       0.00000000       6.00000000       0.00000000       0.00000000      -0.01352419
