2
Properties=species:S:1:pos:R:3:forces:R:3 energy=45885.09419957607 pbc="F F F"
Sb       0.00000000       0.00000000       0.00000000       0.00000000       0.00000000 -1108711.50000000
Sb       0.00000000       0.00000000       0.10000000       0.00000000       0.00000000 1108711.50000000
2
Properties=species:S:1:pos:R:3:forces:R:3 energy=13366.175254263573 pbc="F F F"
Sb       0.00000000       0.00000000       0.00000000       0.00000000       0.00000000 -240492.17187500
Sb       0.00000000       0.00000000       0.15959596       0.00000000       0.00000000  240492.17187500
2
Properties=species:S:1:pos:R:3:forces:R:3 energy=5078.940879263573 pbc="F F F"
Sb       0.00000000       0.00000000       0.00000000       0.00000000       0.00000000  -75056.24218750
Sb       0.00000000       0.00000000       0.21919192       0.00000000       0.00000000   75056.24218750
2
Properties=species:S:1:pos:R:3:forces:R:3 energy=2243.007773794823 pbc="F F F"
Sb       0.00000000       0.00000000       0.00000000       0.00000000       0.00000000  -28649.44531250
Sb       0.00000000       0.00000000       0.27878788       0.00000000       0.00000000   28649.44531250
2
Properties=species:S:1:pos:R:3:forces:R:3 energy=1098.2354349339712 pbc="F F F"
Sb       0.00000000       0.00000000       0.00000000       0.00000000       0.00000000  -12335.01074219
Sb       0.00000000       0.00000000       0.33838384       0.00000000       0.00000000   12335.01074219
2
Properties=species:S:1:pos:R:3:forces:R:3 energy=586.9903787816274 pbc="F F F"
Sb       0.00000000       0.00000000       0.00000000       0.00000000       0.00000000   -5746.10009766
Sb       0.00000000       0.00000000       0.39797980       0.00000000       0.00000000    5746.10009766
2
Properties=species:S:1:pos:R:3:forces:R:3 energy=342.50740760289244 pbc="F F F"
Sb       0.00000000       0.00000000       0.00000000       0.00000000       0.00000000   -2832.32739258
Sb       0.00000000       0.00000000       0.45757576       0.00000000       0.00000000    2832.32739258
2
Properties=species:S:1:pos:R:3:forces:R:3 energy=219.61775919073506 pbc="F F F"
Sb       0.00000000       0.00000000       0.00000000       0.00000000       0.00000000   -1455.35241699
Sb       0.00000000       0.00000000       0.51717172       0.00000000       0.00000000    1455.35241699
2
Properties=species:S:1:pos:R:3:forces:R:3 energy=155.619575030983 pbc="F F F"
Sb       0.00000000       0.00000000       0.00000000       0.00000000       0.00000000    -768.53332520
Sb       0.00000000       0.00000000       0.57676768       0.00000000       0.00000000     768.53332520
2
Properties=species:S:1:pos:R:3:forces:R:3 energy=121.59088858357322 pbc="F F F"
Sb       0.00000000       0.00000000       0.00000000       0.00000000       0.00000000    -411.18499756
Sb       0.00000000       0.00000000       0.63636364       0.00000000       0.00000000     411.18499756
2
Properties=species:S:1:pos:R:3:forces:R:3 energy=103.3123547684036 pbc="F F F"
Sb       0.00000000       0.00000000       0.00000000       0.00000000       0.00000000    -222.44003296
Sb       0.00000000       0.00000000       0.69595960       0.00000000       0.00000000     222.44003296
2
Properties=species:S:1:pos:R:3:forces:R:3 energy=93.2803420063485 pbc="F F F"
Sb       0.00000000       0.00000000       0.00000000       0.00000000       0.00000000    -124.63610077
Sb       0.00000000       0.00000000       0.75555556       0.00000000       0.00000000     124.63610077
2
Properties=species:S:1:pos:R:3:forces:R:3 energy=87.96830767184761 pbc="F F F"
Sb       0.00000000       0.00000000       0.00000000       0.00000000       0.00000000     -49.15510178
Sb       0.00000000       0.00000000       0.81515152       0.00000000       0.00000000      49.15510178
2
Properties=species:S:1:pos:R:3:forces:R:3 energy=87.69333705635678 pbc="F F F"
Sb       0.00000000       0.00000000       0.00000000       0.00000000       0.00000000       6.80704880
Sb       0.00000000       0.00000000       0.87474747       0.00000000       0.00000000      -6.80704880
2
Properties=species:S:1:pos:R:3:forces:R:3 energy=87.07636373694035 pbc="F F F"
Sb       0.00000000       0.00000000       0.00000000       0.00000000       0.00000000     -29.75146866
Sb       0.00000000       0.00000000       0.93434343       0.00000000       0.00000000      29.75146866
2
Properties=species:S:1:pos:R:3:forces:R:3 energy=83.79790686195174 pbc="F F F"
Sb       0.00000000       0.00000000       0.00000000       0.00000000       0.00000000     -72.70980835
Sb       0.00000000       0.00000000       0.99393939       0.00000000       0.00000000      72.70980835
2
Properties=species:S:1:pos:R:3:forces:R:3 energy=79.34847553428618 pbc="F F F"
Sb       0.00000000       0.00000000       0.00000000       0.00000000       0.00000000     -78.98916626
Sb       0.00000000       0.00000000       1.05353535       0.00000000       0.00000000      78.98916626
2
Properties=species:S:1:pos:R:3:forces:R:3 energy=73.5234189447295 pbc="F F F"
Sb       0.00000000       0.00000000       0.00000000       0.00000000       0.00000000    -137.69177246
Sb       0.00000000       0.00000000       1.11313131       0.00000000       0.00000000     137.69177246
2
Properties=species:S:1:pos:R:3:forces:R:3 energy=63.13527914998626 pbc="F F F"
Sb       0.00000000       0.00000000       0.00000000       0.00000000       0.00000000    -180.18977356
Sb       0.00000000       0.00000000       1.17272727       0.00000000       0.00000000     180.18977356
2
Properties=species:S:1:pos:R:3:forces:R:3 energy=52.705197310008536 pbc="F F F"
Sb       0.00000000       0.00000000       0.00000000       0.00000000       0.00000000    -168.69865417
Sb       0.00000000       0.00000000       1.23232323       0.00000000       0.00000000     168.69865417
2
Properties=species:S:1:pos:R:3:forces:R:3 energy=43.032345005598756 pbc="F F F"
Sb       0.00000000       0.00000000       0.00000000       0.00000000       0.00000000    -156.45977783
Sb       0.00000000       0.00000000       1.29191919       0.00000000       0.00000000     156.45977783
2
Properties=species:S:1:pos:R:3:forces:R:3 energy=34.07198360660984 pbc="F F F"
Sb       0.00000000       0.00000000       0.00000000       0.00000000       0.00000000    -142.90640259
Sb       0.00000000       0.00000000       1.35151515       0.00000000       0.00000000     142.90640259
2
Properties=species:S:1:pos:R:3:forces:R:3 energy=26.24698011806454 pbc="F F F"
Sb       0.00000000       0.00000000       0.00000000       0.00000000       0.00000000    -117.87058258
Sb       0.00000000       0.00000000       1.41111111       0.00000000       0.00000000     117.87058258
2
Properties=species:S:1:pos:R:3:forces:R:3 energy=20.087751231350936 pbc="F F F"
Sb       0.00000000       0.00000000       0.00000000       0.00000000       0.00000000     -89.47577667
Sb       0.00000000       0.00000000       1.47070707       0.00000000       0.00000000      89.47577667
2
Properties=species:S:1:pos:R:3:forces:R:3 energy=15.437857399698895 pbc="F F F"
Sb       0.00000000       0.00000000       0.00000000       0.00000000       0.00000000     -67.99845886
Sb       0.00000000       0.00000000       1.53030303       0.00000000       0.00000000      67.99845886
2
Properties=species:S:1:pos:R:3:forces:R:3 energy=11.821664314315347 pbc="F F F"
Sb       0.00000000       0.00000000       0.00000000       0.00000000       0.00000000     -54.54174805
Sb       0.00000000       0.00000000       1.58989899       0.00000000       0.00000000      54.54174805
2
Properties=species:S:1:pos:R:3:forces:R:3 energy=8.824170422780846 pbc="F F F"
Sb       0.00000000       0.00000000       0.00000000       0.00000000       0.00000000     -46.74843979
Sb       0.00000000       0.00000000       1.64949495       0.00000000       0.00000000      46.74843979
2
Properties=species:S:1:pos:R:3:forces:R:3 energy=6.195959715901823 pbc="F F F"
Sb       0.00000000       0.00000000       0.00000000       0.00000000       0.00000000     -41.67256165
Sb       0.00000000       0.00000000       1.70909091       0.00000000       0.00000000      41.67256165
2
Properties=species:S:1:pos:R:3:forces:R:3 energy=3.851680887272721 pbc="F F F"
Sb       0.00000000       0.00000000       0.00000000       0.00000000       0.00000000     -36.92708206
Sb       0.00000000       0.00000000       1.76868687       0.00000000       0.00000000      36.92708206
2
Properties=species:S:1:pos:R:3:forces:R:3 energy=1.8065259354118353 pbc="F F F"
Sb       0.00000000       0.00000000       0.00000000       0.00000000       0.00000000     -31.62798691
Sb       0.00000000       0.00000000       1.82828283       0.00000000       0.00000000      31.62798691
2
Properties=species:S:1:pos:R:3:forces:R:3 energy=0.08390283910103026 pbc="F F F"
Sb       0.00000000       0.00000000       0.00000000       0.00000000       0.00000000     -26.23317337
Sb       0.00000000       0.00000000       1.88787879       0.00000000       0.00000000      26.23317337
2
Properties=species:S:1:pos:R:3:forces:R:3 energy=-1.3326368314036592 pbc="F F F"
Sb       0.00000000       0.00000000       0.00000000       0.00000000       0.00000000     -21.44294548
Sb       0.00000000       0.00000000       1.94747475       0.00000000       0.00000000      21.44294548
2
Properties=species:S:1:pos:R:3:forces:R:3 energy=-2.489038808507847 pbc="F F F"
Sb       0.00000000       0.00000000       0.00000000       0.00000000       0.00000000     -17.49833870
Sb       0.00000000       0.00000000       2.00707071       0.00000000       0.00000000      17.49833870
2
Properties=species:S:1:pos:R:3:forces:R:3 energy=-3.4314351919182737 pbc="F F F"
Sb       0.00000000       0.00000000       0.00000000       0.00000000       0.00000000     -14.21364403
Sb       0.00000000       0.00000000       2.06666667       0.00000000       0.00000000      14.21364403
2
Properties=species:S:1:pos:R:3:forces:R:3 energy=-4.190971979777228 pbc="F F F"
Sb       0.00000000       0.00000000       0.00000000       0.00000000       0.00000000     -11.32642460
Sb       0.00000000       0.00000000       2.12626263       0.00000000       0.00000000      11.32642460
2
Properties=species:S:1:pos:R:3:forces:R:3 energy=-4.786690608280859 pbc="F F F"
Sb       0.00000000       0.00000000       0.00000000       0.00000000       0.00000000      -8.70684338
Sb       0.00000000       0.00000000       2.18585859       0.00000000       0.00000000       8.70684338
2
Properties=species:S:1:pos:R:3:forces:R:3 energy=-5.233848709404663 pbc="F F F"
Sb       0.00000000       0.00000000       0.00000000       0.00000000       0.00000000      -6.34485579
Sb       0.00000000       0.00000000       2.24545455       0.00000000       0.00000000       6.34485579
2
Properties=species:S:1:pos:R:3:forces:R:3 energy=-5.548728813239255 pbc="F F F"
Sb       0.00000000       0.00000000       0.00000000       0.00000000       0.00000000      -4.27363777
Sb       0.00000000       0.00000000       2.30505051       0.00000000       0.00000000       4.27363777
2
Properties=species:S:1:pos:R:3:forces:R:3 energy=-5.749561259974419 pbc="F F F"
Sb       0.00000000       0.00000000       0.00000000       0.00000000       0.00000000      -2.52025294
Sb       0.00000000       0.00000000       2.36464646       0.00000000       0.00000000       2.52025294
2
Properties=species:S:1:pos:R:3:forces:R:3 energy=-5.855547185904531 pbc="F F F"
Sb       0.00000000       0.00000000       0.00000000       0.00000000       0.00000000      -1.08962357
Sb       0.00000000       0.00000000       2.42424242       0.00000000       0.00000000       1.08962357
2
Properties=species:S:1:pos:R:3:forces:R:3 energy=-5.885576778811667 pbc="F F F"
Sb       0.00000000       0.00000000       0.00000000       0.00000000       0.00000000       0.03227579
Sb       0.00000000       0.00000000       2.48383838       0.00000000       0.00000000      -0.03227579
2
Properties=species:S:1:pos:R:3:forces:R:3 energy=-5.857310902270185 pbc="F F F"
Sb       0.00000000       0.00000000       0.00000000       0.00000000       0.00000000       0.87210488
Sb       0.00000000       0.00000000       2.54343434       0.00000000       0.00000000      -0.87210488
2
Properties=species:S:1:pos:R:3:forces:R:3 energy=-5.786494500824076 pbc="F F F"
Sb       0.00000000       0.00000000       0.00000000       0.00000000       0.00000000       1.46731997
Sb       0.00000000       0.00000000       2.60303030       0.00000000       0.00000000      -1.46731997
2
Properties=species:S:1:pos:R:3:forces:R:3 energy=-5.686340494700334 pbc="F F F"
Sb       0.00000000       0.00000000       0.00000000       0.00000000       0.00000000       1.86518383
Sb       0.00000000       0.00000000       2.66262626       0.00000000       0.00000000      -1.86518383
2
Properties=species:S:1:pos:R:3:forces:R:3 energy=-5.567069688972102 pbc="F F F"
Sb       0.00000000       0.00000000       0.00000000       0.00000000       0.00000000       2.11744618
Sb       0.00000000       0.00000000       2.72222222       0.00000000       0.00000000      -2.11744618
2
Properties=species:S:1:pos:R:3:forces:R:3 energy=-5.435897898955385 pbc="F F F"
Sb       0.00000000       0.00000000       0.00000000       0.00000000       0.00000000       2.27173543
Sb       0.00000000       0.00000000       2.78181818       0.00000000       0.00000000      -2.27173543
2
Properties=species:S:1:pos:R:3:forces:R:3 energy=-5.297515190559989 pbc="F F F"
Sb       0.00000000       0.00000000       0.00000000       0.00000000       0.00000000       2.36415720
Sb       0.00000000       0.00000000       2.84141414       0.00000000       0.00000000      -2.36415720
2
Properties=species:S:1:pos:R:3:forces:R:3 energy=-5.154899084049225 pbc="F F F"
Sb       0.00000000       0.00000000       0.00000000       0.00000000       0.00000000       2.41638207
Sb       0.00000000       0.00000000       2.90101010       0.00000000       0.00000000      -2.41638207
2
Properties=species:S:1:pos:R:3:forces:R:3 energy=-5.010115486746393 pbc="F F F"
Sb       0.00000000       0.00000000       0.00000000       0.00000000       0.00000000       2.43757129
Sb       0.00000000       0.00000000       2.96060606       0.00000000       0.00000000      -2.43757129
2
Properties=species:S:1:pos:R:3:forces:R:3 energy=-4.864944757888896 pbc="F F F"
Sb       0.00000000       0.00000000       0.00000000       0.00000000       0.00000000       2.42922091
Sb       0.00000000       0.00000000       3.02020202       0.00000000       0.00000000      -2.42922091
2
Properties=species:S:1:pos:R:3:forces:R:3 energy=-4.721177330003531 pbc="F F F"
Sb       0.00000000       0.00000000       0.00000000       0.00000000       0.00000000       2.39041758
Sb       0.00000000       0.00000000       3.07979798       0.00000000       0.00000000      -2.39041758
2
Properties=species:S:1:pos:R:3:forces:R:3 energy=-4.580626042996459 pbc="F F F"
Sb       0.00000000       0.00000000       0.00000000       0.00000000       0.00000000       2.32155347
Sb       0.00000000       0.00000000       3.13939394       0.00000000       0.00000000      -2.32155347
2
Properties=species:S:1:pos:R:3:forces:R:3 energy=-4.445003313403541 pbc="F F F"
Sb       0.00000000       0.00000000       0.00000000       0.00000000       0.00000000       2.22574162
Sb       0.00000000       0.00000000       3.19898990       0.00000000       0.00000000      -2.22574162
2
Properties=species:S:1:pos:R:3:forces:R:3 energy=-4.315763242061448 pbc="F F F"
Sb       0.00000000       0.00000000       0.00000000       0.00000000       0.00000000       2.10840845
Sb       0.00000000       0.00000000       3.25858586       0.00000000       0.00000000      -2.10840845
2
Properties=species:S:1:pos:R:3:forces:R:3 energy=-4.193994242773466 pbc="F F F"
Sb       0.00000000       0.00000000       0.00000000       0.00000000       0.00000000       1.97613311
Sb       0.00000000       0.00000000       3.31818182       0.00000000       0.00000000      -1.97613311
2
Properties=species:S:1:pos:R:3:forces:R:3 energy=-4.080390996846114 pbc="F F F"
Sb       0.00000000       0.00000000       0.00000000       0.00000000       0.00000000       1.83542728
Sb       0.00000000       0.00000000       3.37777778       0.00000000       0.00000000      -1.83542728
2
Properties=species:S:1:pos:R:3:forces:R:3 energy=-3.975282623249204 pbc="F F F"
Sb       0.00000000       0.00000000       0.00000000       0.00000000       0.00000000       1.69190335
Sb       0.00000000       0.00000000       3.43737374       0.00000000       0.00000000      -1.69190335
2
Properties=species:S:1:pos:R:3:forces:R:3 energy=-3.878689732753074 pbc="F F F"
Sb       0.00000000       0.00000000       0.00000000       0.00000000       0.00000000       1.55037904
Sb       0.00000000       0.00000000       3.49696970       0.00000000       0.00000000      -1.55037904
2
Properties=species:S:1:pos:R:3:forces:R:3 energy=-3.7903588836871984 pbc="F F F"
Sb       0.00000000       0.00000000       0.00000000       0.00000000       0.00000000       1.41537166
Sb       0.00000000       0.00000000       3.55656566       0.00000000       0.00000000      -1.41537166
2
Properties=species:S:1:pos:R:3:forces:R:3 energy=-3.7097785507356225 pbc="F F F"
Sb       0.00000000       0.00000000       0.00000000       0.00000000       0.00000000       1.29091716
Sb       0.00000000       0.00000000       3.61616162       0.00000000       0.00000000      -1.29091716
2
Properties=species:S:1:pos:R:3:forces:R:3 energy=-3.6362266273168466 pbc="F F F"
Sb       0.00000000       0.00000000       0.00000000       0.00000000       0.00000000       1.17978501
Sb       0.00000000       0.00000000       3.67575758       0.00000000       0.00000000      -1.17978501
2
Properties=species:S:1:pos:R:3:forces:R:3 energy=-3.568873177942806 pbc="F F F"
Sb       0.00000000       0.00000000       0.00000000       0.00000000       0.00000000       1.08290052
Sb       0.00000000       0.00000000       3.73535354       0.00000000       0.00000000      -1.08290052
2
Properties=species:S:1:pos:R:3:forces:R:3 energy=-3.506889340984475 pbc="F F F"
Sb       0.00000000       0.00000000       0.00000000       0.00000000       0.00000000       0.99928463
Sb       0.00000000       0.00000000       3.79494949       0.00000000       0.00000000      -0.99928463
2
Properties=species:S:1:pos:R:3:forces:R:3 energy=-3.4495500108918793 pbc="F F F"
Sb       0.00000000       0.00000000       0.00000000       0.00000000       0.00000000       0.92653543
Sb       0.00000000       0.00000000       3.85454545       0.00000000       0.00000000      -0.92653543
2
Properties=species:S:1:pos:R:3:forces:R:3 energy=-3.396298731405353 pbc="F F F"
Sb       0.00000000       0.00000000       0.00000000       0.00000000       0.00000000       0.86158341
Sb       0.00000000       0.00000000       3.91414141       0.00000000       0.00000000      -0.86158341
2
Properties=species:S:1:pos:R:3:forces:R:3 energy=-3.346761950657199 pbc="F F F"
Sb       0.00000000       0.00000000       0.00000000       0.00000000       0.00000000       0.80138576
Sb       0.00000000       0.00000000       3.97373737       0.00000000       0.00000000      -0.80138576
2
Properties=species:S:1:pos:R:3:forces:R:3 energy=-3.300734831602526 pbc="F F F"
Sb       0.00000000       0.00000000       0.00000000       0.00000000       0.00000000       0.74348521
Sb       0.00000000       0.00000000       4.03333333       0.00000000       0.00000000      -0.74348521
2
Properties=species:S:1:pos:R:3:forces:R:3 energy=-3.258131615773367 pbc="F F F"
Sb       0.00000000       0.00000000       0.00000000       0.00000000       0.00000000       0.68627214
Sb       0.00000000       0.00000000       4.09292929       0.00000000       0.00000000      -0.68627214
2
Properties=species:S:1:pos:R:3:forces:R:3 energy=-3.2189364987160007 pbc="F F F"
Sb       0.00000000       0.00000000       0.00000000       0.00000000       0.00000000       0.62909079
Sb       0.00000000       0.00000000       4.15252525       0.00000000       0.00000000      -0.62909079
2
Properties=species:S:1:pos:R:3:forces:R:3 energy=-3.1831445338615563 pbc="F F F"
Sb       0.00000000       0.00000000       0.00000000       0.00000000       0.00000000       0.57218134
Sb       0.00000000       0.00000000       4.21212121       0.00000000       0.00000000      -0.57218134
2
Properties=species:S:1:pos:R:3:forces:R:3 energy=-3.15071296028983 pbc="F F F"
Sb       0.00000000       0.00000000       0.00000000       0.00000000       0.00000000       0.51650065
Sb       0.00000000       0.00000000       4.27171717       0.00000000       0.00000000      -0.51650065
2
Properties=species:S:1:pos:R:3:forces:R:3 energy=-3.1215295184008465 pbc="F F F"
Sb       0.00000000       0.00000000       0.00000000       0.00000000       0.00000000       0.46346167
Sb       0.00000000       0.00000000       4.33131313       0.00000000       0.00000000      -0.46346167
2
Properties=species:S:1:pos:R:3:forces:R:3 energy=-3.0953894857035293 pbc="F F F"
Sb       0.00000000       0.00000000       0.00000000       0.00000000       0.00000000       0.41459364
Sb       0.00000000       0.00000000       4.39090909       0.00000000       0.00000000      -0.41459364
2
Properties=species:S:1:pos:R:3:forces:R:3 energy=-3.0720034084124617 pbc="F F F"
Sb       0.00000000       0.00000000       0.00000000       0.00000000       0.00000000       0.37123173
Sb       0.00000000       0.00000000       4.45050505       0.00000000       0.00000000      -0.37123173
2
Properties=species:S:1:pos:R:3:forces:R:3 energy=-3.0510140164957127 pbc="F F F"
Sb       0.00000000       0.00000000       0.00000000       0.00000000       0.00000000       0.33427685
Sb       0.00000000       0.00000000       4.51010101       0.00000000       0.00000000      -0.33427685
2
Properties=species:S:1:pos:R:3:forces:R:3 energy=-3.032025594341495 pbc="F F F"
Sb       0.00000000       0.00000000       0.00000000       0.00000000       0.00000000       0.30406961
Sb       0.00000000       0.00000000       4.56969697       0.00000000       0.00000000      -0.30406961
2
Properties=species:S:1:pos:R:3:forces:R:3 energy=-3.0146411423782844 pbc="F F F"
Sb       0.00000000       0.00000000       0.00000000       0.00000000       0.00000000       0.28038675
Sb       0.00000000       0.00000000       4.62929293       0.00000000       0.00000000      -0.28038675
2
Properties=species:S:1:pos:R:3:forces:R:3 energy=-2.9984906316763116 pbc="F F F"
Sb       0.00000000       0.00000000       0.00000000       0.00000000       0.00000000       0.26250499
Sb       0.00000000       0.00000000       4.68888889       0.00000000       0.00000000      -0.26250499
2
Properties=species:S:1:pos:R:3:forces:R:3 energy=-2.983259522310213 pbc="F F F"
Sb       0.00000000       0.00000000       0.00000000       0.00000000       0.00000000       0.24929921
Sb       0.00000000       0.00000000       4.74848485       0.00000000       0.00000000      -0.24929921
2
Properties=species:S:1:pos:R:3:forces:R:3 energy=-2.9687103406563993 pbc="F F F"
Sb       0.00000000       0.00000000       0.00000000       0.00000000       0.00000000       0.23939683
Sb       0.00000000       0.00000000       4.80808081       0.00000000       0.00000000      -0.23939683
2
Properties=species:S:1:pos:R:3:forces:R:3 energy=-2.954688676287486 pbc="F F F"
Sb       0.00000000       0.00000000       0.00000000       0.00000000       0.00000000       0.23134740
Sb       0.00000000       0.00000000       4.86767677       0.00000000       0.00000000      -0.23134740
2
Properties=species:S:1:pos:R:3:forces:R:3 energy=-2.9411254552843102 pbc="F F F"
Sb       0.00000000       0.00000000       0.00000000       0.00000000       0.00000000       0.22380079
Sb       0.00000000       0.00000000       4.92727273       0.00000000       0.00000000      -0.22380079
2
Properties=species:S:1:pos:R:3:forces:R:3 energy=-2.9280252197116887 pbc="F F F"
Sb       0.00000000       0.00000000       0.00000000       0.00000000       0.00000000       0.21565990
Sb       0.00000000       0.00000000       4.98686869       0.00000000       0.00000000      -0.21565990
2
Properties=species:S:1:pos:R:3:forces:R:3 energy=-2.915449489003036 pbc="F F F"
Sb       0.00000000       0.00000000       0.00000000       0.00000000       0.00000000       0.20613532
Sb       0.00000000       0.00000000       5.04646465       0.00000000       0.00000000      -0.20613532
2
Properties=species:S:1:pos:R:3:forces:R:3 energy=-2.9034933046566795 pbc="F F F"
Sb       0.00000000       0.00000000       0.00000000       0.00000000       0.00000000       0.19476072
Sb       0.00000000       0.00000000       5.10606061       0.00000000       0.00000000      -0.19476072
2
Properties=species:S:1:pos:R:3:forces:R:3 energy=-2.892274599602288 pbc="F F F"
Sb       0.00000000       0.00000000       0.00000000       0.00000000       0.00000000       0.18133560
Sb       0.00000000       0.00000000       5.16565657       0.00000000       0.00000000      -0.18133560
2
Properties=species:S:1:pos:R:3:forces:R:3 energy=-2.881918460990739 pbc="F F F"
Sb       0.00000000       0.00000000       0.00000000       0.00000000       0.00000000       0.16591831
Sb       0.00000000       0.00000000       5.22525253       0.00000000       0.00000000      -0.16591831
2
Properties=species:S:1:pos:R:3:forces:R:3 energy=-2.8725330530854523 pbc="F F F"
Sb       0.00000000       0.00000000       0.00000000       0.00000000       0.00000000       0.14881171
Sb       0.00000000       0.00000000       5.28484848       0.00000000       0.00000000      -0.14881171
2
Properties=species:S:1:pos:R:3:forces:R:3 energy=-2.86420420807889 pbc="F F F"
Sb       0.00000000       0.00000000       0.00000000       0.00000000       0.00000000       0.13055022
Sb       0.00000000       0.00000000       5.34444444       0.00000000       0.00000000      -0.13055022
2
Properties=species:S:1:pos:R:3:forces:R:3 energy=-2.8569809079018107 pbc="F F F"
Sb       0.00000000       0.00000000       0.00000000       0.00000000       0.00000000       0.11184539
Sb       0.00000000       0.00000000       5.40404040       0.00000000       0.00000000      -0.11184539
2
Properties=species:S:1:pos:R:3:forces:R:3 energy=-2.8508653134085438 pbc="F F F"
Sb       0.00000000       0.00000000       0.00000000       0.00000000       0.00000000       0.09348048
Sb       0.00000000       0.00000000       5.46363636       0.00000000       0.00000000      -0.09348048
2
Properties=species:S:1:pos:R:3:forces:R:3 energy=-2.845818301857286 pbc="F F F"
Sb       0.00000000       0.00000000       0.00000000       0.00000000       0.00000000       0.07619706
Sb       0.00000000       0.00000000       5.52323232       0.00000000       0.00000000      -0.07619706
2
Properties=species:S:1:pos:R:3:forces:R:3 energy=-2.8417518882007258 pbc="F F F"
Sb       0.00000000       0.00000000       0.00000000       0.00000000       0.00000000       0.06057002
Sb       0.00000000       0.00000000       5.58282828       0.00000000       0.00000000      -0.06057002
2
Properties=species:S:1:pos:R:3:forces:R:3 energy=-2.8385587842381175 pbc="F F F"
Sb       0.00000000       0.00000000       0.00000000       0.00000000       0.00000000       0.04695330
Sb       0.00000000       0.00000000       5.64242424       0.00000000       0.00000000      -0.04695330
2
Properties=species:S:1:pos:R:3:forces:R:3 energy=-2.8361120128530093 pbc="F F F"
Sb       0.00000000       0.00000000       0.00000000       0.00000000       0.00000000       0.03547137
Sb       0.00000000       0.00000000       5.70202020       0.00000000       0.00000000      -0.03547137
2
Properties=species:S:1:pos:R:3:forces:R:3 energy=-2.834289008088623 pbc="F F F"
Sb       0.00000000       0.00000000       0.00000000       0.00000000       0.00000000       0.02610793
Sb       0.00000000       0.00000000       5.76161616       0.00000000       0.00000000      -0.02610793
2
Properties=species:S:1:pos:R:3:forces:R:3 energy=-2.832960649477125 pbc="F F F"
Sb       0.00000000       0.00000000       0.00000000       0.00000000       0.00000000       0.01876992
Sb       0.00000000       0.00000000       5.82121212       0.00000000       0.00000000      -0.01876992
2
Properties=species:S:1:pos:R:3:forces:R:3 energy=-2.8320137462459702 pbc="F F F"
Sb       0.00000000       0.00000000       0.00000000       0.00000000       0.00000000       0.01337907
Sb       0.00000000       0.00000000       5.88080808       0.00000000       0.00000000      -0.01337907
2
Properties=species:S:1:pos:R:3:forces:R:3 energy=-2.8313278940846653 pbc="F F F"
Sb       0.00000000       0.00000000       0.00000000       0.00000000       0.00000000       0.00990732
Sb       0.00000000       0.00000000       5.94040404       0.00000000       0.00000000      -0.00990732
2
Properties=species:S:1:pos:R:3:forces:R:3 energy=-2.8307929319701075 pbc="F F F"
Sb       0.00000000       0.00000000       0.00000000       0.00000000       0.00000000       0.00839876
Sb       0.00000000       0.00000000       6.00000000       0.00000000       0.00000000      -0.00839876
