2
Properties=species:S:1:pos:R:3:forces:R:3 energy=66968.22454308692 pbc="F F F"
Tb       0.00000000       0.00000000       0.00000000       0.00000000       0.00000000 -1665535.37500000
Tb       0.00000000       0.00000000       0.10000000       0.00000000       0.00000000 1665535.37500000
2
Properties=species:S:1:pos:R:3:forces:R:3 energy=18789.361261836915 pbc="F F F"
Tb       0.00000000       0.00000000       0.00000000       0.00000000       0.00000000 -349221.40625000
Tb       0.00000000       0.00000000       0.15959596       0.00000000       0.00000000  349221.40625000
2
Properties=species:S:1:pos:R:3:forces:R:3 energy=6881.410089961916 pbc="F F F"
Tb       0.00000000       0.00000000       0.00000000       0.00000000       0.00000000 -106249.15625000
Tb       0.00000000       0.00000000       0.21919192       0.00000000       0.00000000  106249.15625000
2
Properties=species:S:1:pos:R:3:forces:R:3 energy=2908.801203243166 pbc="F F F"
Tb       0.00000000       0.00000000       0.00000000       0.00000000       0.00000000  -39543.41796875
Tb       0.00000000       0.00000000       0.27878788       0.00000000       0.00000000   39543.41796875
2
Properties=species:S:1:pos:R:3:forces:R:3 energy=1346.3389229697284 pbc="F F F"
Tb       0.00000000       0.00000000       0.00000000       0.00000000       0.00000000  -16587.47460938
Tb       0.00000000       0.00000000       0.33838384       0.00000000       0.00000000   16587.47460938
2
Properties=species:S:1:pos:R:3:forces:R:3 energy=666.2368111533223 pbc="F F F"
Tb       0.00000000       0.00000000       0.00000000       0.00000000       0.00000000   -7542.97167969
Tb       0.00000000       0.00000000       0.39797980       0.00000000       0.00000000    7542.97167969
2
Properties=species:S:1:pos:R:3:forces:R:3 energy=348.08617638769726 pbc="F F F"
Tb       0.00000000       0.00000000       0.00000000       0.00000000       0.00000000   -3650.74804688
Tb       0.00000000       0.00000000       0.45757576       0.00000000       0.00000000    3650.74804688
2
Properties=species:S:1:pos:R:3:forces:R:3 energy=190.3752083954617 pbc="F F F"
Tb       0.00000000       0.00000000       0.00000000       0.00000000       0.00000000   -1862.57910156
Tb       0.00000000       0.00000000       0.51717172       0.00000000       0.00000000    1862.57910156
2
Properties=species:S:1:pos:R:3:forces:R:3 energy=108.20022061516424 pbc="F F F"
Tb       0.00000000       0.00000000       0.00000000       0.00000000       0.00000000    -995.04827881
Tb       0.00000000       0.00000000       0.57676768       0.00000000       0.00000000     995.04827881
2
Properties=species:S:1:pos:R:3:forces:R:3 energy=63.486292430521864 pbc="F F F"
Tb       0.00000000       0.00000000       0.00000000       0.00000000       0.00000000    -553.03674316
Tb       0.00000000       0.00000000       0.63636364       0.00000000       0.00000000     553.03674316
2
Properties=species:S:1:pos:R:3:forces:R:3 energy=38.25647222974217 pbc="F F F"
Tb       0.00000000       0.00000000       0.00000000       0.00000000       0.00000000    -317.29309082
Tb       0.00000000       0.00000000       0.69595960       0.00000000       0.00000000     317.29309082
2
Properties=species:S:1:pos:R:3:forces:R:3 energy=23.625649170393928 pbc="F F F"
Tb       0.00000000       0.00000000       0.00000000       0.00000000       0.00000000    -185.95336914
Tb       0.00000000       0.00000000       0.75555556       0.00000000       0.00000000     185.95336914
2
Properties=species:S:1:pos:R:3:forces:R:3 energy=15.015431249011112 pbc="F F F"
Tb       0.00000000       0.00000000       0.00000000       0.00000000       0.00000000    -109.58438110
Tb       0.00000000       0.00000000       0.81515152       0.00000000       0.00000000     109.58438110
2
Properties=species:S:1:pos:R:3:forces:R:3 energy=9.975419079461298 pbc="F F F"
Tb       0.00000000       0.00000000       0.00000000       0.00000000       0.00000000     -63.22253799
Tb       0.00000000       0.00000000       0.87474747       0.00000000       0.00000000      63.22253799
2
Properties=species:S:1:pos:R:3:forces:R:3 energy=7.145930591285898 pbc="F F F"
Tb       0.00000000       0.00000000       0.00000000       0.00000000       0.00000000     -33.86347580
Tb       0.00000000       0.00000000       0.93434343       0.00000000       0.00000000      33.86347580
2
Properties=species:S:1:pos:R:3:forces:R:3 energy=5.7390348444039025 pbc="F F F"
Tb       0.00000000       0.00000000       0.00000000       0.00000000       0.00000000     -14.68897820
Tb       0.00000000       0.00000000       0.99393939       0.00000000       0.00000000      14.68897820
2
Properties=species:S:1:pos:R:3:forces:R:3 energy=5.260887342361844 pbc="F F F"
Tb       0.00000000       0.00000000       0.00000000       0.00000000       0.00000000      -2.33956194
Tb       0.00000000       0.00000000       1.05353535       0.00000000       0.00000000       2.33956194
2
Properties=species:S:1:pos:R:3:forces:R:3 energy=5.351168069939895 pbc="F F F"
Tb       0.00000000       0.00000000       0.00000000       0.00000000       0.00000000       4.48787880
Tb       0.00000000       0.00000000       1.11313131       0.00000000       0.00000000      -4.48787880
2
Properties=species:S:1:pos:R:3:forces:R:3 energy=5.6918600212176464 pbc="F F F"
Tb       0.00000000       0.00000000       0.00000000       0.00000000       0.00000000       6.08631468
Tb       0.00000000       0.00000000       1.17272727       0.00000000       0.00000000      -6.08631468
2
Properties=species:S:1:pos:R:3:forces:R:3 energy=5.978960020873561 pbc="F F F"
Tb       0.00000000       0.00000000       0.00000000       0.00000000       0.00000000       2.80106115
Tb       0.00000000       0.00000000       1.23232323       0.00000000       0.00000000      -2.80106115
2
Properties=species:S:1:pos:R:3:forces:R:3 energy=5.951675889533762 pbc="F F F"
Tb       0.00000000       0.00000000       0.00000000       0.00000000       0.00000000      -4.17424297
Tb       0.00000000       0.00000000       1.29191919       0.00000000       0.00000000       4.17424297
2
Properties=species:S:1:pos:R:3:forces:R:3 energy=5.452439699978128 pbc="F F F"
Tb       0.00000000       0.00000000       0.00000000       0.00000000       0.00000000     -12.58234596
Tb       0.00000000       0.00000000       1.35151515       0.00000000       0.00000000      12.58234596
2
Properties=species:S:1:pos:R:3:forces:R:3 energy=4.4830001154360986 pbc="F F F"
Tb       0.00000000       0.00000000       0.00000000       0.00000000       0.00000000     -19.42648506
Tb       0.00000000       0.00000000       1.41111111       0.00000000       0.00000000      19.42648506
2
Properties=species:S:1:pos:R:3:forces:R:3 energy=3.2280276729099175 pbc="F F F"
Tb       0.00000000       0.00000000       0.00000000       0.00000000       0.00000000     -21.72992516
Tb       0.00000000       0.00000000       1.47070707       0.00000000       0.00000000      21.72992516
2
Properties=species:S:1:pos:R:3:forces:R:3 energy=2.0167477881837357 pbc="F F F"
Tb       0.00000000       0.00000000       0.00000000       0.00000000       0.00000000     -17.91731834
Tb       0.00000000       0.00000000       1.53030303       0.00000000       0.00000000      17.91731834
2
Properties=species:S:1:pos:R:3:forces:R:3 energy=1.1836770752251273 pbc="F F F"
Tb       0.00000000       0.00000000       0.00000000       0.00000000       0.00000000      -9.63076210
Tb       0.00000000       0.00000000       1.58989899       0.00000000       0.00000000       9.63076210
2
Properties=species:S:1:pos:R:3:forces:R:3 energy=0.8658603326964089 pbc="F F F"
Tb       0.00000000       0.00000000       0.00000000       0.00000000       0.00000000      -1.45734668
Tb       0.00000000       0.00000000       1.64949495       0.00000000       0.00000000       1.45734668
2
Properties=species:S:1:pos:R:3:forces:R:3 energy=0.9314795969418311 pbc="F F F"
Tb       0.00000000       0.00000000       0.00000000       0.00000000       0.00000000       2.90172124
Tb       0.00000000       0.00000000       1.70909091       0.00000000       0.00000000      -2.90172124
2
Properties=species:S:1:pos:R:3:forces:R:3 energy=1.1297523767688886 pbc="F F F"
Tb       0.00000000       0.00000000       0.00000000       0.00000000       0.00000000       3.20318460
Tb       0.00000000       0.00000000       1.76868687       0.00000000       0.00000000      -3.20318460
2
Properties=species:S:1:pos:R:3:forces:R:3 energy=1.2688130388449133 pbc="F F F"
Tb       0.00000000       0.00000000       0.00000000       0.00000000       0.00000000       1.25966668
Tb       0.00000000       0.00000000       1.82828283       0.00000000       0.00000000      -1.25966668
2
Properties=species:S:1:pos:R:3:forces:R:3 energy=1.2718836251351555 pbc="F F F"
Tb       0.00000000       0.00000000       0.00000000       0.00000000       0.00000000      -1.11526597
Tb       0.00000000       0.00000000       1.88787879       0.00000000       0.00000000       1.11526597
2
Properties=species:S:1:pos:R:3:forces:R:3 energy=1.148477554132696 pbc="F F F"
Tb       0.00000000       0.00000000       0.00000000       0.00000000       0.00000000      -2.88485980
Tb       0.00000000       0.00000000       1.94747475       0.00000000       0.00000000       2.88485980
2
Properties=species:S:1:pos:R:3:forces:R:3 energy=0.9449832792099355 pbc="F F F"
Tb       0.00000000       0.00000000       0.00000000       0.00000000       0.00000000      -3.81519055
Tb       0.00000000       0.00000000       2.00707071       0.00000000       0.00000000       3.81519055
2
Properties=species:S:1:pos:R:3:forces:R:3 energy=0.706595313099779 pbc="F F F"
Tb       0.00000000       0.00000000       0.00000000       0.00000000       0.00000000      -4.09872723
Tb       0.00000000       0.00000000       2.06666667       0.00000000       0.00000000       4.09872723
2
Properties=species:S:1:pos:R:3:forces:R:3 energy=0.46429202568470646 pbc="F F F"
Tb       0.00000000       0.00000000       0.00000000       0.00000000       0.00000000      -3.98617625
Tb       0.00000000       0.00000000       2.12626263       0.00000000       0.00000000       3.98617625
2
Properties=species:S:1:pos:R:3:forces:R:3 energy=0.23508783641651007 pbc="F F F"
Tb       0.00000000       0.00000000       0.00000000       0.00000000       0.00000000      -3.68927288
Tb       0.00000000       0.00000000       2.18585859       0.00000000       0.00000000       3.68927288
2
Properties=species:S:1:pos:R:3:forces:R:3 energy=0.02533801026895212 pbc="F F F"
Tb       0.00000000       0.00000000       0.00000000       0.00000000       0.00000000      -3.35074353
Tb       0.00000000       0.00000000       2.24545455       0.00000000       0.00000000       3.35074353
2
Properties=species:S:1:pos:R:3:forces:R:3 energy=-0.16495687363049039 pbc="F F F"
Tb       0.00000000       0.00000000       0.00000000       0.00000000       0.00000000      -3.04405856
Tb       0.00000000       0.00000000       2.30505051       0.00000000       0.00000000       3.04405856
2
Properties=species:S:1:pos:R:3:forces:R:3 energy=-0.3386961809365974 pbc="F F F"
Tb       0.00000000       0.00000000       0.00000000       0.00000000       0.00000000      -2.79743767
Tb       0.00000000       0.00000000       2.36464646       0.00000000       0.00000000       2.79743767
2
Properties=species:S:1:pos:R:3:forces:R:3 energy=-0.49966795792311997 pbc="F F F"
Tb       0.00000000       0.00000000       0.00000000       0.00000000       0.00000000      -2.61486077
Tb       0.00000000       0.00000000       2.42424242       0.00000000       0.00000000       2.61486077
2
Properties=species:S:1:pos:R:3:forces:R:3 energy=-0.6514666296350013 pbc="F F F"
Tb       0.00000000       0.00000000       0.00000000       0.00000000       0.00000000      -2.48739624
Tb       0.00000000       0.00000000       2.48383838       0.00000000       0.00000000       2.48739624
2
Properties=species:S:1:pos:R:3:forces:R:3 energy=-0.7969139027505184 pbc="F F F"
Tb       0.00000000       0.00000000       0.00000000       0.00000000       0.00000000      -2.39854360
Tb       0.00000000       0.00000000       2.54343434       0.00000000       0.00000000       2.39854360
2
Properties=species:S:1:pos:R:3:forces:R:3 energy=-0.9377198408998004 pbc="F F F"
Tb       0.00000000       0.00000000       0.00000000       0.00000000       0.00000000      -2.32809830
Tb       0.00000000       0.00000000       2.60303030       0.00000000       0.00000000       2.32809830
2
Properties=species:S:1:pos:R:3:forces:R:3 energy=-1.0743778837543454 pbc="F F F"
Tb       0.00000000       0.00000000       0.00000000       0.00000000       0.00000000      -2.25642610
Tb       0.00000000       0.00000000       2.66262626       0.00000000       0.00000000       2.25642610
2
Properties=species:S:1:pos:R:3:forces:R:3 energy=-1.2063363936544294 pbc="F F F"
Tb       0.00000000       0.00000000       0.00000000       0.00000000       0.00000000      -2.16833568
Tb       0.00000000       0.00000000       2.72222222       0.00000000       0.00000000       2.16833568
2
Properties=species:S:1:pos:R:3:forces:R:3 energy=-1.3323196430443076 pbc="F F F"
Tb       0.00000000       0.00000000       0.00000000       0.00000000       0.00000000      -2.05498815
Tb       0.00000000       0.00000000       2.78181818       0.00000000       0.00000000       2.05498815
2
Properties=species:S:1:pos:R:3:forces:R:3 energy=-1.45070841313578 pbc="F F F"
Tb       0.00000000       0.00000000       0.00000000       0.00000000       0.00000000      -1.91327250
Tb       0.00000000       0.00000000       2.84141414       0.00000000       0.00000000       1.91327250
2
Properties=species:S:1:pos:R:3:forces:R:3 energy=-1.5598149219601736 pbc="F F F"
Tb       0.00000000       0.00000000       0.00000000       0.00000000       0.00000000      -1.74379098
Tb       0.00000000       0.00000000       2.90101010       0.00000000       0.00000000       1.74379098
2
Properties=species:S:1:pos:R:3:forces:R:3 energy=-1.6580497455480792 pbc="F F F"
Tb       0.00000000       0.00000000       0.00000000       0.00000000       0.00000000      -1.54895830
Tb       0.00000000       0.00000000       2.96060606       0.00000000       0.00000000       1.54895830
2
Properties=species:S:1:pos:R:3:forces:R:3 energy=-1.7439960369674918 pbc="F F F"
Tb       0.00000000       0.00000000       0.00000000       0.00000000       0.00000000      -1.33192122
Tb       0.00000000       0.00000000       3.02020202       0.00000000       0.00000000       1.33192122
2
Properties=species:S:1:pos:R:3:forces:R:3 energy=-1.8164319123276682 pbc="F F F"
Tb       0.00000000       0.00000000       0.00000000       0.00000000       0.00000000      -1.09612763
Tb       0.00000000       0.00000000       3.07979798       0.00000000       0.00000000       1.09612763
2
Properties=species:S:1:pos:R:3:forces:R:3 energy=-1.874346749605622 pbc="F F F"
Tb       0.00000000       0.00000000       0.00000000       0.00000000       0.00000000      -0.84526503
Tb       0.00000000       0.00000000       3.13939394       0.00000000       0.00000000       0.84526503
2
Properties=species:S:1:pos:R:3:forces:R:3 energy=-1.9169621971595665 pbc="F F F"
Tb       0.00000000       0.00000000       0.00000000       0.00000000       0.00000000      -0.58345276
Tb       0.00000000       0.00000000       3.19898990       0.00000000       0.00000000       0.58345276
2
Properties=species:S:1:pos:R:3:forces:R:3 energy=-1.9437743461389336 pbc="F F F"
Tb       0.00000000       0.00000000       0.00000000       0.00000000       0.00000000      -0.31592262
Tb       0.00000000       0.00000000       3.25858586       0.00000000       0.00000000       0.31592262
2
Properties=species:S:1:pos:R:3:forces:R:3 energy=-1.9546494503761918 pbc="F F F"
Tb       0.00000000       0.00000000       0.00000000       0.00000000       0.00000000      -0.05009303
Tb       0.00000000       0.00000000       3.31818182       0.00000000       0.00000000       0.05009303
2
Properties=species:S:1:pos:R:3:forces:R:3 energy=-1.9499815464102077 pbc="F F F"
Tb       0.00000000       0.00000000       0.00000000       0.00000000       0.00000000       0.20373097
Tb       0.00000000       0.00000000       3.37777778       0.00000000       0.00000000      -0.20373097
2
Properties=species:S:1:pos:R:3:forces:R:3 energy=-1.9308549535868873 pbc="F F F"
Tb       0.00000000       0.00000000       0.00000000       0.00000000       0.00000000       0.43293151
Tb       0.00000000       0.00000000       3.43737374       0.00000000       0.00000000      -0.43293151
2
Properties=species:S:1:pos:R:3:forces:R:3 energy=-1.8991235937541866 pbc="F F F"
Tb       0.00000000       0.00000000       0.00000000       0.00000000       0.00000000       0.62477040
Tb       0.00000000       0.00000000       3.49696970       0.00000000       0.00000000      -0.62477040
2
Properties=species:S:1:pos:R:3:forces:R:3 energy=-1.857325974863779 pbc="F F F"
Tb       0.00000000       0.00000000       0.00000000       0.00000000       0.00000000       0.76957452
Tb       0.00000000       0.00000000       3.55656566       0.00000000       0.00000000      -0.76957452
2
Properties=species:S:1:pos:R:3:forces:R:3 energy=-1.8084087521321819 pbc="F F F"
Tb       0.00000000       0.00000000       0.00000000       0.00000000       0.00000000       0.86367393
Tb       0.00000000       0.00000000       3.61616162       0.00000000       0.00000000      -0.86367393
2
Properties=species:S:1:pos:R:3:forces:R:3 energy=-1.7553226212204693 pbc="F F F"
Tb       0.00000000       0.00000000       0.00000000       0.00000000       0.00000000       0.91071939
Tb       0.00000000       0.00000000       3.67575758       0.00000000       0.00000000      -0.91071939
2
Properties=species:S:1:pos:R:3:forces:R:3 energy=-1.7005950266230592 pbc="F F F"
Tb       0.00000000       0.00000000       0.00000000       0.00000000       0.00000000       0.92083824
Tb       0.00000000       0.00000000       3.73535354       0.00000000       0.00000000      -0.92083824
2
Properties=species:S:1:pos:R:3:forces:R:3 energy=-1.6460250757534354 pbc="F F F"
Tb       0.00000000       0.00000000       0.00000000       0.00000000       0.00000000       0.90783429
Tb       0.00000000       0.00000000       3.79494949       0.00000000       0.00000000      -0.90783429
2
Properties=species:S:1:pos:R:3:forces:R:3 energy=-1.5925718640144644 pbc="F F F"
Tb       0.00000000       0.00000000       0.00000000       0.00000000       0.00000000       0.88547325
Tb       0.00000000       0.00000000       3.85454545       0.00000000       0.00000000      -0.88547325
2
Properties=species:S:1:pos:R:3:forces:R:3 energy=-1.5404576288477219 pbc="F F F"
Tb       0.00000000       0.00000000       0.00000000       0.00000000       0.00000000       0.86427778
Tb       0.00000000       0.00000000       3.91414141       0.00000000       0.00000000      -0.86427778
2
Properties=species:S:1:pos:R:3:forces:R:3 energy=-1.4894220104768163 pbc="F F F"
Tb       0.00000000       0.00000000       0.00000000       0.00000000       0.00000000       0.84968430
Tb       0.00000000       0.00000000       3.97373737       0.00000000       0.00000000      -0.84968430
2
Properties=species:S:1:pos:R:3:forces:R:3 energy=-1.4390426195262316 pbc="F F F"
Tb       0.00000000       0.00000000       0.00000000       0.00000000       0.00000000       0.84197384
Tb       0.00000000       0.00000000       4.03333333       0.00000000       0.00000000      -0.84197384
2
Properties=species:S:1:pos:R:3:forces:R:3 energy=-1.3889993165126644 pbc="F F F"
Tb       0.00000000       0.00000000       0.00000000       0.00000000       0.00000000       0.83754861
Tb       0.00000000       0.00000000       4.09292929       0.00000000       0.00000000      -0.83754861
2
Properties=species:S:1:pos:R:3:forces:R:3 energy=-1.339256785791722 pbc="F F F"
Tb       0.00000000       0.00000000       0.00000000       0.00000000       0.00000000       0.83091927
Tb       0.00000000       0.00000000       4.15252525       0.00000000       0.00000000      -0.83091927
2
Properties=species:S:1:pos:R:3:forces:R:3 energy=-1.2901138438542858 pbc="F F F"
Tb       0.00000000       0.00000000       0.00000000       0.00000000       0.00000000       0.81665057
Tb       0.00000000       0.00000000       4.21212121       0.00000000       0.00000000      -0.81665057
2
Properties=species:S:1:pos:R:3:forces:R:3 energy=-1.2421495630632795 pbc="F F F"
Tb       0.00000000       0.00000000       0.00000000       0.00000000       0.00000000       0.79084140
Tb       0.00000000       0.00000000       4.27171717       0.00000000       0.00000000      -0.79084140
2
Properties=species:S:1:pos:R:3:forces:R:3 energy=-1.1961141024549684 pbc="F F F"
Tb       0.00000000       0.00000000       0.00000000       0.00000000       0.00000000       0.75191689
Tb       0.00000000       0.00000000       4.33131313       0.00000000       0.00000000      -0.75191689
2
Properties=species:S:1:pos:R:3:forces:R:3 energy=-1.1527710306947985 pbc="F F F"
Tb       0.00000000       0.00000000       0.00000000       0.00000000       0.00000000       0.70080918
Tb       0.00000000       0.00000000       4.39090909       0.00000000       0.00000000      -0.70080918
2
Properties=species:S:1:pos:R:3:forces:R:3 energy=-1.1127625395527323 pbc="F F F"
Tb       0.00000000       0.00000000       0.00000000       0.00000000       0.00000000       0.64069039
Tb       0.00000000       0.00000000       4.45050505       0.00000000       0.00000000      -0.64069039
2
Properties=species:S:1:pos:R:3:forces:R:3 energy=-1.076490560563345 pbc="F F F"
Tb       0.00000000       0.00000000       0.00000000       0.00000000       0.00000000       0.57634306
Tb       0.00000000       0.00000000       4.51010101       0.00000000       0.00000000      -0.57634306
2
Properties=species:S:1:pos:R:3:forces:R:3 energy=-1.0440407411773125 pbc="F F F"
Tb       0.00000000       0.00000000       0.00000000       0.00000000       0.00000000       0.51331633
Tb       0.00000000       0.00000000       4.56969697       0.00000000       0.00000000      -0.51331633
2
Properties=species:S:1:pos:R:3:forces:R:3 energy=-1.0151723600731077 pbc="F F F"
Tb       0.00000000       0.00000000       0.00000000       0.00000000       0.00000000       0.45702645
Tb       0.00000000       0.00000000       4.62929293       0.00000000       0.00000000      -0.45702645
2
Properties=species:S:1:pos:R:3:forces:R:3 energy=-0.9893447573572138 pbc="F F F"
Tb       0.00000000       0.00000000       0.00000000       0.00000000       0.00000000       0.41189015
Tb       0.00000000       0.00000000       4.68888889       0.00000000       0.00000000      -0.41189015
2
Properties=species:S:1:pos:R:3:forces:R:3 energy=-0.9658013301799012 pbc="F F F"
Tb       0.00000000       0.00000000       0.00000000       0.00000000       0.00000000       0.38063455
Tb       0.00000000       0.00000000       4.74848485       0.00000000       0.00000000      -0.38063455
2
Properties=species:S:1:pos:R:3:forces:R:3 energy=-0.9436865519080557 pbc="F F F"
Tb       0.00000000       0.00000000       0.00000000       0.00000000       0.00000000       0.36389601
Tb       0.00000000       0.00000000       4.80808081       0.00000000       0.00000000      -0.36389601
2
Properties=species:S:1:pos:R:3:forces:R:3 energy=-0.9221693117262582 pbc="F F F"
Tb       0.00000000       0.00000000       0.00000000       0.00000000       0.00000000       0.36009407
Tb       0.00000000       0.00000000       4.86767677       0.00000000       0.00000000      -0.36009407
2
Properties=species:S:1:pos:R:3:forces:R:3 energy=-0.9005781944216937 pbc="F F F"
Tb       0.00000000       0.00000000       0.00000000       0.00000000       0.00000000       0.36565733
Tb       0.00000000       0.00000000       4.92727273       0.00000000       0.00000000      -0.36565733
2
Properties=species:S:1:pos:R:3:forces:R:3 energy=-0.8784972206987953 pbc="F F F"
Tb       0.00000000       0.00000000       0.00000000       0.00000000       0.00000000       0.37564451
Tb       0.00000000       0.00000000       4.98686869       0.00000000       0.00000000      -0.37564451
2
Properties=species:S:1:pos:R:3:forces:R:3 energy=-0.8558264003306436 pbc="F F F"
Tb       0.00000000       0.00000000       0.00000000       0.00000000       0.00000000       0.38466132
Tb       0.00000000       0.00000000       5.04646465       0.00000000       0.00000000      -0.38466132
2
Properties=species:S:1:pos:R:3:forces:R:3 energy=-0.8327654145734809 pbc="F F F"
Tb       0.00000000       0.00000000       0.00000000       0.00000000       0.00000000       0.38793719
Tb       0.00000000       0.00000000       5.10606061       0.00000000       0.00000000      -0.38793719
2
Properties=species:S:1:pos:R:3:forces:R:3 energy=-0.8097645411212343 pbc="F F F"
Tb       0.00000000       0.00000000       0.00000000       0.00000000       0.00000000       0.38216501
Tb       0.00000000       0.00000000       5.16565657       0.00000000       0.00000000      -0.38216501
2
Properties=species:S:1:pos:R:3:forces:R:3 energy=-0.7874197450109605 pbc="F F F"
Tb       0.00000000       0.00000000       0.00000000       0.00000000       0.00000000       0.36601245
Tb       0.00000000       0.00000000       5.22525253       0.00000000       0.00000000      -0.36601245
2
Properties=species:S:1:pos:R:3:forces:R:3 energy=-0.7663355156639293 pbc="F F F"
Tb       0.00000000       0.00000000       0.00000000       0.00000000       0.00000000       0.34009740
Tb       0.00000000       0.00000000       5.28484848       0.00000000       0.00000000      -0.34009740
2
Properties=species:S:1:pos:R:3:forces:R:3 energy=-0.7470346597155013 pbc="F F F"
Tb       0.00000000       0.00000000       0.00000000       0.00000000       0.00000000       0.30655998
Tb       0.00000000       0.00000000       5.34444444       0.00000000       0.00000000      -0.30655998
2
Properties=species:S:1:pos:R:3:forces:R:3 energy=-0.7298875808120484 pbc="F F F"
Tb       0.00000000       0.00000000       0.00000000       0.00000000       0.00000000       0.26835969
Tb       0.00000000       0.00000000       5.40404040       0.00000000       0.00000000      -0.26835969
2
Properties=species:S:1:pos:R:3:forces:R:3 energy=-0.7150755277197531 pbc="F F F"
Tb       0.00000000       0.00000000       0.00000000       0.00000000       0.00000000       0.22861567
Tb       0.00000000       0.00000000       5.46363636       0.00000000       0.00000000      -0.22861567
2
Properties=species:S:1:pos:R:3:forces:R:3 energy=-0.7026186237627873 pbc="F F F"
Tb       0.00000000       0.00000000       0.00000000       0.00000000       0.00000000       0.18999448
Tb       0.00000000       0.00000000       5.52323232       0.00000000       0.00000000      -0.18999448
2
Properties=species:S:1:pos:R:3:forces:R:3 energy=-0.692372704025341 pbc="F F F"
Tb       0.00000000       0.00000000       0.00000000       0.00000000       0.00000000       0.15443921
Tb       0.00000000       0.00000000       5.58282828       0.00000000       0.00000000      -0.15443921
2
Properties=species:S:1:pos:R:3:forces:R:3 energy=-0.6841265129362125 pbc="F F F"
Tb       0.00000000       0.00000000       0.00000000       0.00000000       0.00000000       0.12308760
Tb       0.00000000       0.00000000       5.64242424       0.00000000       0.00000000      -0.12308760
2
Properties=species:S:1:pos:R:3:forces:R:3 energy=-0.6776058270767399 pbc="F F F"
Tb       0.00000000       0.00000000       0.00000000       0.00000000       0.00000000       0.09641678
Tb       0.00000000       0.00000000       5.70202020       0.00000000       0.00000000      -0.09641678
2
Properties=species:S:1:pos:R:3:forces:R:3 energy=-0.6725410266730916 pbc="F F F"
Tb       0.00000000       0.00000000       0.00000000       0.00000000       0.00000000       0.07446456
Tb       0.00000000       0.00000000       5.76161616       0.00000000       0.00000000      -0.07446456
2
Properties=species:S:1:pos:R:3:forces:R:3 energy=-0.668640604623457 pbc="F F F"
Tb       0.00000000       0.00000000       0.00000000       0.00000000       0.00000000       0.05712300
Tb       0.00000000       0.00000000       5.82121212       0.00000000       0.00000000      -0.05712300
2
Properties=species:S:1:pos:R:3:forces:R:3 energy=-0.6656432773806665 pbc="F F F"
Tb       0.00000000       0.00000000       0.00000000       0.00000000       0.00000000       0.04433854
Tb       0.00000000       0.00000000       5.88080808       0.00000000       0.00000000      -0.04433854
2
Properties=species:S:1:pos:R:3:forces:R:3 energy=-0.6632626859290233 pbc="F F F"
Tb       0.00000000       0.00000000       0.00000000       0.00000000       0.00000000       0.03620151
Tb       0.00000000       0.00000000       5.94040404       0.00000000       0.00000000      -0.03620151
2
Properties=species:S:1:pos:R:3:forces:R:3 energy=-0.6612280055543273 pbc="F F F"
Tb       0.00000000       0.00000000       0.00000000       0.00000000       0.00000000       0.03298599
Tb       0.00000000       0.00000000       6.00000000       0.00000000       0.00000000      -0.03298599
