2
Properties=species:S:1:pos:R:3:forces:R:3 energy=35054.80923142539 pbc="F F F"
Tc       0.00000000       0.00000000       0.00000000       0.00000000       0.00000000 -830217.43750000
Tc       0.00000000       0.00000000       0.10000000       0.00000000       0.00000000  830217.43750000
2
Properties=species:S:1:pos:R:3:forces:R:3 energy=10467.729153300388 pbc="F F F"
Tc       0.00000000       0.00000000       0.00000000       0.00000000       0.00000000 -184391.78125000
Tc       0.00000000       0.00000000       0.15959596       0.00000000       0.00000000  184391.78125000
2
Properties=species:S:1:pos:R:3:forces:R:3 energy=4067.4264189253877 pbc="F F F"
Tc       0.00000000       0.00000000       0.00000000       0.00000000       0.00000000  -58550.57031250
Tc       0.00000000       0.00000000       0.21919192       0.00000000       0.00000000   58550.57031250
2
Properties=species:S:1:pos:R:3:forces:R:3 energy=1839.892605448825 pbc="F F F"
Tc       0.00000000       0.00000000       0.00000000       0.00000000       0.00000000  -22719.03515625
Tc       0.00000000       0.00000000       0.27878788       0.00000000       0.00000000   22719.03515625
2
Properties=species:S:1:pos:R:3:forces:R:3 energy=925.4575468614107 pbc="F F F"
Tc       0.00000000       0.00000000       0.00000000       0.00000000       0.00000000   -9948.12988281
Tc       0.00000000       0.00000000       0.33838384       0.00000000       0.00000000    9948.12988281
2
Properties=species:S:1:pos:R:3:forces:R:3 energy=510.22686449469944 pbc="F F F"
Tc       0.00000000       0.00000000       0.00000000       0.00000000       0.00000000   -4707.02636719
Tc       0.00000000       0.00000000       0.39797980       0.00000000       0.00000000    4707.02636719
2
Properties=species:S:1:pos:R:3:forces:R:3 energy=308.8826567500345 pbc="F F F"
Tc       0.00000000       0.00000000       0.00000000       0.00000000       0.00000000   -2345.09667969
Tc       0.00000000       0.00000000       0.45757576       0.00000000       0.00000000    2345.09667969
2
Properties=species:S:1:pos:R:3:forces:R:3 energy=207.03854057077524 pbc="F F F"
Tc       0.00000000       0.00000000       0.00000000       0.00000000       0.00000000   -1203.74304199
Tc       0.00000000       0.00000000       0.51717172       0.00000000       0.00000000    1203.74304199
2
Properties=species:S:1:pos:R:3:forces:R:3 energy=154.58553770444416 pbc="F F F"
Tc       0.00000000       0.00000000       0.00000000       0.00000000       0.00000000    -618.45721436
Tc       0.00000000       0.00000000       0.57676768       0.00000000       0.00000000     618.45721436
2
Properties=species:S:1:pos:R:3:forces:R:3 energy=128.04604805972073 pbc="F F F"
Tc       0.00000000       0.00000000       0.00000000       0.00000000       0.00000000    -303.77066040
Tc       0.00000000       0.00000000       0.63636364       0.00000000       0.00000000     303.77066040
2
Properties=species:S:1:pos:R:3:forces:R:3 energy=115.5242968206389 pbc="F F F"
Tc       0.00000000       0.00000000       0.00000000       0.00000000       0.00000000    -135.00833130
Tc       0.00000000       0.00000000       0.69595960       0.00000000       0.00000000     135.00833130
2
Properties=species:S:1:pos:R:3:forces:R:3 energy=110.12282307504123 pbc="F F F"
Tc       0.00000000       0.00000000       0.00000000       0.00000000       0.00000000     -59.23988724
Tc       0.00000000       0.00000000       0.75555556       0.00000000       0.00000000      59.23988724
2
Properties=species:S:1:pos:R:3:forces:R:3 energy=107.13158962949629 pbc="F F F"
Tc       0.00000000       0.00000000       0.00000000       0.00000000       0.00000000     -50.59915161
Tc       0.00000000       0.00000000       0.81515152       0.00000000       0.00000000      50.59915161
2
Properties=species:S:1:pos:R:3:forces:R:3 energy=103.15371542483797 pbc="F F F"
Tc       0.00000000       0.00000000       0.00000000       0.00000000       0.00000000     -89.75699615
Tc       0.00000000       0.00000000       0.87474747       0.00000000       0.00000000      89.75699615
2
Properties=species:S:1:pos:R:3:forces:R:3 energy=95.62763130421988 pbc="F F F"
Tc       0.00000000       0.00000000       0.00000000       0.00000000       0.00000000    -165.95553589
Tc       0.00000000       0.00000000       0.93434343       0.00000000       0.00000000     165.95553589
2
Properties=species:S:1:pos:R:3:forces:R:3 energy=83.9251863973927 pbc="F F F"
Tc       0.00000000       0.00000000       0.00000000       0.00000000       0.00000000    -220.40623474
Tc       0.00000000       0.00000000       0.99393939       0.00000000       0.00000000     220.40623474
2
Properties=species:S:1:pos:R:3:forces:R:3 energy=69.90531328817261 pbc="F F F"
Tc       0.00000000       0.00000000       0.00000000       0.00000000       0.00000000    -246.16380310
Tc       0.00000000       0.00000000       1.05353535       0.00000000       0.00000000     246.16380310
2
Properties=species:S:1:pos:R:3:forces:R:3 energy=55.02630981375779 pbc="F F F"
Tc       0.00000000       0.00000000       0.00000000       0.00000000       0.00000000    -249.72473145
Tc       0.00000000       0.00000000       1.11313131       0.00000000       0.00000000     249.72473145
2
Properties=species:S:1:pos:R:3:forces:R:3 energy=40.52499630280145 pbc="F F F"
Tc       0.00000000       0.00000000       0.00000000       0.00000000       0.00000000    -233.91029358
Tc       0.00000000       0.00000000       1.17272727       0.00000000       0.00000000     233.91029358
2
Properties=species:S:1:pos:R:3:forces:R:3 energy=27.45300106450152 pbc="F F F"
Tc       0.00000000       0.00000000       0.00000000       0.00000000       0.00000000    -202.88012695
Tc       0.00000000       0.00000000       1.23232323       0.00000000       0.00000000     202.88012695
2
Properties=species:S:1:pos:R:3:forces:R:3 energy=16.48084120601562 pbc="F F F"
Tc       0.00000000       0.00000000       0.00000000       0.00000000       0.00000000    -164.65077209
Tc       0.00000000       0.00000000       1.29191919       0.00000000       0.00000000     164.65077209
2
Properties=species:S:1:pos:R:3:forces:R:3 energy=7.90563037400604 pbc="F F F"
Tc       0.00000000       0.00000000       0.00000000       0.00000000       0.00000000    -122.62377930
Tc       0.00000000       0.00000000       1.35151515       0.00000000       0.00000000     122.62377930
2
Properties=species:S:1:pos:R:3:forces:R:3 energy=1.8214735697373277 pbc="F F F"
Tc       0.00000000       0.00000000       0.00000000       0.00000000       0.00000000     -83.11177826
Tc       0.00000000       0.00000000       1.41111111       0.00000000       0.00000000      83.11177826
2
Properties=species:S:1:pos:R:3:forces:R:3 energy=-2.277855925464211 pbc="F F F"
Tc       0.00000000       0.00000000       0.00000000       0.00000000       0.00000000     -56.88467789
Tc       0.00000000       0.00000000       1.47070707       0.00000000       0.00000000      56.88467789
2
Properties=species:S:1:pos:R:3:forces:R:3 energy=-5.166981182493168 pbc="F F F"
Tc       0.00000000       0.00000000       0.00000000       0.00000000       0.00000000     -41.01837540
Tc       0.00000000       0.00000000       1.53030303       0.00000000       0.00000000      41.01837540
2
Properties=species:S:1:pos:R:3:forces:R:3 energy=-7.2208388850416485 pbc="F F F"
Tc       0.00000000       0.00000000       0.00000000       0.00000000       0.00000000     -28.18179512
Tc       0.00000000       0.00000000       1.58989899       0.00000000       0.00000000      28.18179512
2
Properties=species:S:1:pos:R:3:forces:R:3 energy=-8.572857201236815 pbc="F F F"
Tc       0.00000000       0.00000000       0.00000000       0.00000000       0.00000000     -17.73715401
Tc       0.00000000       0.00000000       1.64949495       0.00000000       0.00000000      17.73715401
2
Properties=species:S:1:pos:R:3:forces:R:3 energy=-9.40716968141252 pbc="F F F"
Tc       0.00000000       0.00000000       0.00000000       0.00000000       0.00000000     -10.84295559
Tc       0.00000000       0.00000000       1.70909091       0.00000000       0.00000000      10.84295559
2
Properties=species:S:1:pos:R:3:forces:R:3 energy=-9.922615502183387 pbc="F F F"
Tc       0.00000000       0.00000000       0.00000000       0.00000000       0.00000000      -6.82372189
Tc       0.00000000       0.00000000       1.76868687       0.00000000       0.00000000       6.82372189
2
Properties=species:S:1:pos:R:3:forces:R:3 energy=-10.25241969904718 pbc="F F F"
Tc       0.00000000       0.00000000       0.00000000       0.00000000       0.00000000      -4.42748880
Tc       0.00000000       0.00000000       1.82828283       0.00000000       0.00000000       4.42748880
2
Properties=species:S:1:pos:R:3:forces:R:3 energy=-10.465041421675398 pbc="F F F"
Tc       0.00000000       0.00000000       0.00000000       0.00000000       0.00000000      -2.78560829
Tc       0.00000000       0.00000000       1.88787879       0.00000000       0.00000000       2.78560829
2
Properties=species:S:1:pos:R:3:forces:R:3 energy=-10.590279158751539 pbc="F F F"
Tc       0.00000000       0.00000000       0.00000000       0.00000000       0.00000000      -1.44654000
Tc       0.00000000       0.00000000       1.94747475       0.00000000       0.00000000       1.44654000
2
Properties=species:S:1:pos:R:3:forces:R:3 energy=-10.639827320909765 pbc="F F F"
Tc       0.00000000       0.00000000       0.00000000       0.00000000       0.00000000      -0.23198573
Tc       0.00000000       0.00000000       2.00707071       0.00000000       0.00000000       0.23198573
2
Properties=species:S:1:pos:R:3:forces:R:3 energy=-10.6200179314883 pbc="F F F"
Tc       0.00000000       0.00000000       0.00000000       0.00000000       0.00000000       0.87512559
Tc       0.00000000       0.00000000       2.06666667       0.00000000       0.00000000      -0.87512559
2
Properties=species:S:1:pos:R:3:forces:R:3 energy=-10.538771442106855 pbc="F F F"
Tc       0.00000000       0.00000000       0.00000000       0.00000000       0.00000000       1.81854117
Tc       0.00000000       0.00000000       2.12626263       0.00000000       0.00000000      -1.81854117
2
Properties=species:S:1:pos:R:3:forces:R:3 energy=-10.4076856498949 pbc="F F F"
Tc       0.00000000       0.00000000       0.00000000       0.00000000       0.00000000       2.54077840
Tc       0.00000000       0.00000000       2.18585859       0.00000000       0.00000000      -2.54077840
2
Properties=species:S:1:pos:R:3:forces:R:3 energy=-10.240729559496101 pbc="F F F"
Tc       0.00000000       0.00000000       0.00000000       0.00000000       0.00000000       3.02292180
Tc       0.00000000       0.00000000       2.24545455       0.00000000       0.00000000      -3.02292180
2
Properties=species:S:1:pos:R:3:forces:R:3 energy=-10.051736049265886 pbc="F F F"
Tc       0.00000000       0.00000000       0.00000000       0.00000000       0.00000000       3.28638697
Tc       0.00000000       0.00000000       2.30505051       0.00000000       0.00000000      -3.28638697
2
Properties=species:S:1:pos:R:3:forces:R:3 energy=-9.8524758793367 pbc="F F F"
Tc       0.00000000       0.00000000       0.00000000       0.00000000       0.00000000       3.37609172
Tc       0.00000000       0.00000000       2.36464646       0.00000000       0.00000000      -3.37609172
2
Properties=species:S:1:pos:R:3:forces:R:3 energy=-9.651740109927019 pbc="F F F"
Tc       0.00000000       0.00000000       0.00000000       0.00000000       0.00000000       3.34459949
Tc       0.00000000       0.00000000       2.42424242       0.00000000       0.00000000      -3.34459949
2
Properties=species:S:1:pos:R:3:forces:R:3 energy=-9.455231060121493 pbc="F F F"
Tc       0.00000000       0.00000000       0.00000000       0.00000000       0.00000000       3.24207067
Tc       0.00000000       0.00000000       2.48383838       0.00000000       0.00000000      -3.24207067
2
Properties=species:S:1:pos:R:3:forces:R:3 energy=-9.265916186258613 pbc="F F F"
Tc       0.00000000       0.00000000       0.00000000       0.00000000       0.00000000       3.10849380
Tc       0.00000000       0.00000000       2.54343434       0.00000000       0.00000000      -3.10849380
2
Properties=species:S:1:pos:R:3:forces:R:3 energy=-9.084878719430542 pbc="F F F"
Tc       0.00000000       0.00000000       0.00000000       0.00000000       0.00000000       2.96634746
Tc       0.00000000       0.00000000       2.60303030       0.00000000       0.00000000      -2.96634746
2
Properties=species:S:1:pos:R:3:forces:R:3 energy=-8.912485263193243 pbc="F F F"
Tc       0.00000000       0.00000000       0.00000000       0.00000000       0.00000000       2.81691551
Tc       0.00000000       0.00000000       2.66262626       0.00000000       0.00000000      -2.81691551
2
Properties=species:S:1:pos:R:3:forces:R:3 energy=-8.74955848993013 pbc="F F F"
Tc       0.00000000       0.00000000       0.00000000       0.00000000       0.00000000       2.64569998
Tc       0.00000000       0.00000000       2.72222222       0.00000000       0.00000000      -2.64569998
2
Properties=species:S:1:pos:R:3:forces:R:3 energy=-8.59779453114061 pbc="F F F"
Tc       0.00000000       0.00000000       0.00000000       0.00000000       0.00000000       2.44267178
Tc       0.00000000       0.00000000       2.78181818       0.00000000       0.00000000      -2.44267178
2
Properties=species:S:1:pos:R:3:forces:R:3 energy=-8.45864391341653 pbc="F F F"
Tc       0.00000000       0.00000000       0.00000000       0.00000000       0.00000000       2.22843313
Tc       0.00000000       0.00000000       2.84141414       0.00000000       0.00000000      -2.22843313
2
Properties=species:S:1:pos:R:3:forces:R:3 energy=-8.331855071848322 pbc="F F F"
Tc       0.00000000       0.00000000       0.00000000       0.00000000       0.00000000       2.02842140
Tc       0.00000000       0.00000000       2.90101010       0.00000000       0.00000000      -2.02842140
2
Properties=species:S:1:pos:R:3:forces:R:3 energy=-8.217021833696954 pbc="F F F"
Tc       0.00000000       0.00000000       0.00000000       0.00000000       0.00000000       1.82147288
Tc       0.00000000       0.00000000       2.96060606       0.00000000       0.00000000      -1.82147288
2
Properties=species:S:1:pos:R:3:forces:R:3 energy=-8.115205303688455 pbc="F F F"
Tc       0.00000000       0.00000000       0.00000000       0.00000000       0.00000000       1.59315038
Tc       0.00000000       0.00000000       3.02020202       0.00000000       0.00000000      -1.59315038
2
Properties=species:S:1:pos:R:3:forces:R:3 energy=-8.027080386487611 pbc="F F F"
Tc       0.00000000       0.00000000       0.00000000       0.00000000       0.00000000       1.36742580
Tc       0.00000000       0.00000000       3.07979798       0.00000000       0.00000000      -1.36742580
2
Properties=species:S:1:pos:R:3:forces:R:3 energy=-7.951584947768685 pbc="F F F"
Tc       0.00000000       0.00000000       0.00000000       0.00000000       0.00000000       1.17315853
Tc       0.00000000       0.00000000       3.13939394       0.00000000       0.00000000      -1.17315853
2
Properties=species:S:1:pos:R:3:forces:R:3 energy=-7.886300774780217 pbc="F F F"
Tc       0.00000000       0.00000000       0.00000000       0.00000000       0.00000000       1.02613580
Tc       0.00000000       0.00000000       3.19898990       0.00000000       0.00000000      -1.02613580
2
Properties=species:S:1:pos:R:3:forces:R:3 energy=-7.828289663847458 pbc="F F F"
Tc       0.00000000       0.00000000       0.00000000       0.00000000       0.00000000       0.92846596
Tc       0.00000000       0.00000000       3.25858586       0.00000000       0.00000000      -0.92846596
2
Properties=species:S:1:pos:R:3:forces:R:3 energy=-7.774818520697438 pbc="F F F"
Tc       0.00000000       0.00000000       0.00000000       0.00000000       0.00000000       0.87167555
Tc       0.00000000       0.00000000       3.31818182       0.00000000       0.00000000      -0.87167555
2
Properties=species:S:1:pos:R:3:forces:R:3 energy=-7.723880030358021 pbc="F F F"
Tc       0.00000000       0.00000000       0.00000000       0.00000000       0.00000000       0.84065837
Tc       0.00000000       0.00000000       3.37777778       0.00000000       0.00000000      -0.84065837
2
Properties=species:S:1:pos:R:3:forces:R:3 energy=-7.674448048608371 pbc="F F F"
Tc       0.00000000       0.00000000       0.00000000       0.00000000       0.00000000       0.81835908
Tc       0.00000000       0.00000000       3.43737374       0.00000000       0.00000000      -0.81835908
2
Properties=species:S:1:pos:R:3:forces:R:3 energy=-7.626452588411882 pbc="F F F"
Tc       0.00000000       0.00000000       0.00000000       0.00000000       0.00000000       0.79052454
Tc       0.00000000       0.00000000       3.49696970       0.00000000       0.00000000      -0.79052454
2
Properties=species:S:1:pos:R:3:forces:R:3 energy=-7.580496888771085 pbc="F F F"
Tc       0.00000000       0.00000000       0.00000000       0.00000000       0.00000000       0.74920642
Tc       0.00000000       0.00000000       3.55656566       0.00000000       0.00000000      -0.74920642
2
Properties=species:S:1:pos:R:3:forces:R:3 energy=-7.537435195103051 pbc="F F F"
Tc       0.00000000       0.00000000       0.00000000       0.00000000       0.00000000       0.69390506
Tc       0.00000000       0.00000000       3.61616162       0.00000000       0.00000000      -0.69390506
2
Properties=species:S:1:pos:R:3:forces:R:3 energy=-7.497959797589624 pbc="F F F"
Tc       0.00000000       0.00000000       0.00000000       0.00000000       0.00000000       0.63012487
Tc       0.00000000       0.00000000       3.67575758       0.00000000       0.00000000      -0.63012487
2
Properties=species:S:1:pos:R:3:forces:R:3 energy=-7.46233021934978 pbc="F F F"
Tc       0.00000000       0.00000000       0.00000000       0.00000000       0.00000000       0.56630701
Tc       0.00000000       0.00000000       3.73535354       0.00000000       0.00000000      -0.56630701
2
Properties=species:S:1:pos:R:3:forces:R:3 energy=-7.430298376684531 pbc="F F F"
Tc       0.00000000       0.00000000       0.00000000       0.00000000       0.00000000       0.51054287
Tc       0.00000000       0.00000000       3.79494949       0.00000000       0.00000000      -0.51054287
2
Properties=species:S:1:pos:R:3:forces:R:3 energy=-7.401207030942902 pbc="F F F"
Tc       0.00000000       0.00000000       0.00000000       0.00000000       0.00000000       0.46825632
Tc       0.00000000       0.00000000       3.85454545       0.00000000       0.00000000      -0.46825632
2
Properties=species:S:1:pos:R:3:forces:R:3 energy=-7.374178964497015 pbc="F F F"
Tc       0.00000000       0.00000000       0.00000000       0.00000000       0.00000000       0.44133532
Tc       0.00000000       0.00000000       3.91414141       0.00000000       0.00000000      -0.44133532
2
Properties=species:S:1:pos:R:3:forces:R:3 energy=-7.348321932021097 pbc="F F F"
Tc       0.00000000       0.00000000       0.00000000       0.00000000       0.00000000       0.42850566
Tc       0.00000000       0.00000000       3.97373737       0.00000000       0.00000000      -0.42850566
2
Properties=species:S:1:pos:R:3:forces:R:3 energy=-7.322890943516376 pbc="F F F"
Tc       0.00000000       0.00000000       0.00000000       0.00000000       0.00000000       0.42638505
Tc       0.00000000       0.00000000       4.03333333       0.00000000       0.00000000      -0.42638505
2
Properties=species:S:1:pos:R:3:forces:R:3 energy=-7.297373491449512 pbc="F F F"
Tc       0.00000000       0.00000000       0.00000000       0.00000000       0.00000000       0.43066406
Tc       0.00000000       0.00000000       4.09292929       0.00000000       0.00000000      -0.43066406
2
Properties=species:S:1:pos:R:3:forces:R:3 energy=-7.271517276999862 pbc="F F F"
Tc       0.00000000       0.00000000       0.00000000       0.00000000       0.00000000       0.43706480
Tc       0.00000000       0.00000000       4.15252525       0.00000000       0.00000000      -0.43706480
2
Properties=species:S:1:pos:R:3:forces:R:3 energy=-7.245309566677504 pbc="F F F"
Tc       0.00000000       0.00000000       0.00000000       0.00000000       0.00000000       0.44194758
Tc       0.00000000       0.00000000       4.21212121       0.00000000       0.00000000      -0.44194758
2
Properties=species:S:1:pos:R:3:forces:R:3 energy=-7.218925541854682 pbc="F F F"
Tc       0.00000000       0.00000000       0.00000000       0.00000000       0.00000000       0.44259876
Tc       0.00000000       0.00000000       4.27171717       0.00000000       0.00000000      -0.44259876
2
Properties=species:S:1:pos:R:3:forces:R:3 energy=-7.192674397160004 pbc="F F F"
Tc       0.00000000       0.00000000       0.00000000       0.00000000       0.00000000       0.43728536
Tc       0.00000000       0.00000000       4.33131313       0.00000000       0.00000000      -0.43728536
2
Properties=species:S:1:pos:R:3:forces:R:3 energy=-7.1669403853970515 pbc="F F F"
Tc       0.00000000       0.00000000       0.00000000       0.00000000       0.00000000       0.42518052
Tc       0.00000000       0.00000000       4.39090909       0.00000000       0.00000000      -0.42518052
2
Properties=species:S:1:pos:R:3:forces:R:3 energy=-7.142132553237797 pbc="F F F"
Tc       0.00000000       0.00000000       0.00000000       0.00000000       0.00000000       0.40624082
Tc       0.00000000       0.00000000       4.45050505       0.00000000       0.00000000      -0.40624082
2
Properties=species:S:1:pos:R:3:forces:R:3 energy=-7.118643644527978 pbc="F F F"
Tc       0.00000000       0.00000000       0.00000000       0.00000000       0.00000000       0.38108641
Tc       0.00000000       0.00000000       4.51010101       0.00000000       0.00000000      -0.38108641
2
Properties=species:S:1:pos:R:3:forces:R:3 energy=-7.0968105244668 pbc="F F F"
Tc       0.00000000       0.00000000       0.00000000       0.00000000       0.00000000       0.35088179
Tc       0.00000000       0.00000000       4.56969697       0.00000000       0.00000000      -0.35088179
2
Properties=species:S:1:pos:R:3:forces:R:3 energy=-7.076889409417293 pbc="F F F"
Tc       0.00000000       0.00000000       0.00000000       0.00000000       0.00000000       0.31722626
Tc       0.00000000       0.00000000       4.62929293       0.00000000       0.00000000      -0.31722626
2
Properties=species:S:1:pos:R:3:forces:R:3 energy=-7.059031657581026 pbc="F F F"
Tc       0.00000000       0.00000000       0.00000000       0.00000000       0.00000000       0.28198814
Tc       0.00000000       0.00000000       4.68888889       0.00000000       0.00000000      -0.28198814
2
Properties=species:S:1:pos:R:3:forces:R:3 energy=-7.043272229871648 pbc="F F F"
Tc       0.00000000       0.00000000       0.00000000       0.00000000       0.00000000       0.24709472
Tc       0.00000000       0.00000000       4.74848485       0.00000000       0.00000000      -0.24709472
2
Properties=species:S:1:pos:R:3:forces:R:3 energy=-7.029537435014853 pbc="F F F"
Tc       0.00000000       0.00000000       0.00000000       0.00000000       0.00000000       0.21432382
Tc       0.00000000       0.00000000       4.80808081       0.00000000       0.00000000      -0.21432382
2
Properties=species:S:1:pos:R:3:forces:R:3 energy=-7.017655540343101 pbc="F F F"
Tc       0.00000000       0.00000000       0.00000000       0.00000000       0.00000000       0.18509856
Tc       0.00000000       0.00000000       4.86767677       0.00000000       0.00000000      -0.18509856
2
Properties=species:S:1:pos:R:3:forces:R:3 energy=-7.007385134934987 pbc="F F F"
Tc       0.00000000       0.00000000       0.00000000       0.00000000       0.00000000       0.16038035
Tc       0.00000000       0.00000000       4.92727273       0.00000000       0.00000000      -0.16038035
2
Properties=species:S:1:pos:R:3:forces:R:3 energy=-6.998440790122756 pbc="F F F"
Tc       0.00000000       0.00000000       0.00000000       0.00000000       0.00000000       0.14061326
Tc       0.00000000       0.00000000       4.98686869       0.00000000       0.00000000      -0.14061326
2
Properties=species:S:1:pos:R:3:forces:R:3 energy=-6.990528424637569 pbc="F F F"
Tc       0.00000000       0.00000000       0.00000000       0.00000000       0.00000000       0.12572543
Tc       0.00000000       0.00000000       5.04646465       0.00000000       0.00000000      -0.12572543
2
Properties=species:S:1:pos:R:3:forces:R:3 energy=-6.9833694427387085 pbc="F F F"
Tc       0.00000000       0.00000000       0.00000000       0.00000000       0.00000000       0.11517088
Tc       0.00000000       0.00000000       5.10606061       0.00000000       0.00000000      -0.11517088
2
Properties=species:S:1:pos:R:3:forces:R:3 energy=-6.97673238286406 pbc="F F F"
Tc       0.00000000       0.00000000       0.00000000       0.00000000       0.00000000       0.10801961
Tc       0.00000000       0.00000000       5.16565657       0.00000000       0.00000000      -0.10801961
2
Properties=species:S:1:pos:R:3:forces:R:3 energy=-6.970449657615802 pbc="F F F"
Tc       0.00000000       0.00000000       0.00000000       0.00000000       0.00000000       0.10309683
Tc       0.00000000       0.00000000       5.22525253       0.00000000       0.00000000      -0.10309683
2
Properties=species:S:1:pos:R:3:forces:R:3 energy=-6.964424617618762 pbc="F F F"
Tc       0.00000000       0.00000000       0.00000000       0.00000000       0.00000000       0.09916978
Tc       0.00000000       0.00000000       5.28484848       0.00000000       0.00000000      -0.09916978
2
Properties=species:S:1:pos:R:3:forces:R:3 energy=-6.958631798610538 pbc="F F F"
Tc       0.00000000       0.00000000       0.00000000       0.00000000       0.00000000       0.09514281
Tc       0.00000000       0.00000000       5.34444444       0.00000000       0.00000000      -0.09514281
2
Properties=species:S:1:pos:R:3:forces:R:3 energy=-6.953102578312895 pbc="F F F"
Tc       0.00000000       0.00000000       0.00000000       0.00000000       0.00000000       0.09021251
Tc       0.00000000       0.00000000       5.40404040       0.00000000       0.00000000      -0.09021251
2
Properties=species:S:1:pos:R:3:forces:R:3 energy=-6.947904862503283 pbc="F F F"
Tc       0.00000000       0.00000000       0.00000000       0.00000000       0.00000000       0.08395275
Tc       0.00000000       0.00000000       5.46363636       0.00000000       0.00000000      -0.08395275
2
Properties=species:S:1:pos:R:3:forces:R:3 energy=-6.943124507372609 pbc="F F F"
Tc       0.00000000       0.00000000       0.00000000       0.00000000       0.00000000       0.07630734
Tc       0.00000000       0.00000000       5.52323232       0.00000000       0.00000000      -0.07630734
2
Properties=species:S:1:pos:R:3:forces:R:3 energy=-6.9388335234910885 pbc="F F F"
Tc       0.00000000       0.00000000       0.00000000       0.00000000       0.00000000       0.06752995
Tc       0.00000000       0.00000000       5.58282828       0.00000000       0.00000000      -0.06752995
2
Properties=species:S:1:pos:R:3:forces:R:3 energy=-6.935088657968071 pbc="F F F"
Tc       0.00000000       0.00000000       0.00000000       0.00000000       0.00000000       0.05808455
Tc       0.00000000       0.00000000       5.64242424       0.00000000       0.00000000      -0.05808455
2
Properties=species:S:1:pos:R:3:forces:R:3 energy=-6.9319110393418715 pbc="F F F"
Tc       0.00000000       0.00000000       0.00000000       0.00000000       0.00000000       0.04854106
Tc       0.00000000       0.00000000       5.70202020       0.00000000       0.00000000      -0.04854106
2
Properties=species:S:1:pos:R:3:forces:R:3 energy=-6.9292933808223 pbc="F F F"
Tc       0.00000000       0.00000000       0.00000000       0.00000000       0.00000000       0.03948733
Tc       0.00000000       0.00000000       5.76161616       0.00000000       0.00000000      -0.03948733
2
Properties=species:S:1:pos:R:3:forces:R:3 energy=-6.927184292181775 pbc="F F F"
Tc       0.00000000       0.00000000       0.00000000       0.00000000       0.00000000       0.03148148
Tc       0.00000000       0.00000000       5.82121212       0.00000000       0.00000000      -0.03148148
2
Properties=species:S:1:pos:R:3:forces:R:3 energy=-6.9255112693092205 pbc="F F F"
Tc       0.00000000       0.00000000       0.00000000       0.00000000       0.00000000       0.02501013
Tc       0.00000000       0.00000000       5.88080808       0.00000000       0.00000000      -0.02501013
2
Properties=species:S:1:pos:R:3:forces:R:3 energy=-6.924164476994959 pbc="F F F"
Tc       0.00000000       0.00000000       0.00000000       0.00000000       0.00000000       0.02047229
Tc       0.00000000       0.00000000       5.94040404       0.00000000       0.00000000      -0.02047229
2
Properties=species:S:1:pos:R:3:forces:R:3 energy=-6.923024999532464 pbc="F F F"
Tc       0.00000000       0.00000000       0.00000000       0.00000000       0.00000000       0.01818999
Tc       0.00000000       0.00000000       6.00000000       0.00000000       0.00000000      -0.01818999
