2
Properties=species:S:1:pos:R:3:forces:R:3 energy=110548.22716166373 pbc="F F F"
Th       0.00000000       0.00000000       0.00000000       0.00000000       0.00000000 -2852036.50000000
Th       0.00000000       0.00000000       0.10000000       0.00000000       0.00000000 2852036.50000000
2
Properties=species:S:1:pos:R:3:forces:R:3 energy=29573.305286663737 pbc="F F F"
Th       0.00000000       0.00000000       0.00000000       0.00000000       0.00000000 -571096.50000000
Th       0.00000000       0.00000000       0.15959596       0.00000000       0.00000000  571096.50000000
2
Properties=species:S:1:pos:R:3:forces:R:3 energy=10385.140247601235 pbc="F F F"
Th       0.00000000       0.00000000       0.00000000       0.00000000       0.00000000 -167523.42187500
Th       0.00000000       0.00000000       0.21919192       0.00000000       0.00000000  167523.42187500
2
Properties=species:S:1:pos:R:3:forces:R:3 energy=4218.507923382486 pbc="F F F"
Th       0.00000000       0.00000000       0.00000000       0.00000000       0.00000000  -60031.71484375
Th       0.00000000       0.00000000       0.27878788       0.00000000       0.00000000   60031.71484375
2
Properties=species:S:1:pos:R:3:forces:R:3 energy=1885.4286997496736 pbc="F F F"
Th       0.00000000       0.00000000       0.00000000       0.00000000       0.00000000  -24229.01367188
Th       0.00000000       0.00000000       0.33838384       0.00000000       0.00000000   24229.01367188
2
Properties=species:S:1:pos:R:3:forces:R:3 energy=907.6373789488923 pbc="F F F"
Th       0.00000000       0.00000000       0.00000000       0.00000000       0.00000000  -10630.84570312
Th       0.00000000       0.00000000       0.39797980       0.00000000       0.00000000   10630.84570312
2
Properties=species:S:1:pos:R:3:forces:R:3 energy=465.4493296451574 pbc="F F F"
Th       0.00000000       0.00000000       0.00000000       0.00000000       0.00000000   -4989.56835938
Th       0.00000000       0.00000000       0.45757576       0.00000000       0.00000000    4989.56835938
2
Properties=species:S:1:pos:R:3:forces:R:3 energy=252.40294293907866 pbc="F F F"
Th       0.00000000       0.00000000       0.00000000       0.00000000       0.00000000   -2481.75537109
Th       0.00000000       0.00000000       0.51717172       0.00000000       0.00000000    2481.75537109
2
Properties=species:S:1:pos:R:3:forces:R:3 energy=143.97784835992906 pbc="F F F"
Th       0.00000000       0.00000000       0.00000000       0.00000000       0.00000000   -1297.87097168
Th       0.00000000       0.00000000       0.57676768       0.00000000       0.00000000    1297.87097168
2
Properties=species:S:1:pos:R:3:forces:R:3 energy=86.16280018016948 pbc="F F F"
Th       0.00000000       0.00000000       0.00000000       0.00000000       0.00000000    -707.66235352
Th       0.00000000       0.00000000       0.63636364       0.00000000       0.00000000     707.66235352
2
Properties=species:S:1:pos:R:3:forces:R:3 energy=54.15102808776421 pbc="F F F"
Th       0.00000000       0.00000000       0.00000000       0.00000000       0.00000000    -398.48562622
Th       0.00000000       0.00000000       0.69595960       0.00000000       0.00000000     398.48562622
2
Properties=species:S:1:pos:R:3:forces:R:3 energy=35.931488534129244 pbc="F F F"
Th       0.00000000       0.00000000       0.00000000       0.00000000       0.00000000    -229.26652527
Th       0.00000000       0.00000000       0.75555556       0.00000000       0.00000000     229.26652527
2
Properties=species:S:1:pos:R:3:forces:R:3 energy=25.391949349026504 pbc="F F F"
Th       0.00000000       0.00000000       0.00000000       0.00000000       0.00000000    -133.19566345
Th       0.00000000       0.00000000       0.81515152       0.00000000       0.00000000     133.19566345
2
Properties=species:S:1:pos:R:3:forces:R:3 energy=19.268708127206576 pbc="F F F"
Th       0.00000000       0.00000000       0.00000000       0.00000000       0.00000000     -77.24255371
Th       0.00000000       0.00000000       0.87474747       0.00000000       0.00000000      77.24255371
2
Properties=species:S:1:pos:R:3:forces:R:3 energy=15.728991698065158 pbc="F F F"
Th       0.00000000       0.00000000       0.00000000       0.00000000       0.00000000     -44.51337051
Th       0.00000000       0.00000000       0.93434343       0.00000000       0.00000000      44.51337051
2
Properties=species:S:1:pos:R:3:forces:R:3 energy=13.679545997589361 pbc="F F F"
Th       0.00000000       0.00000000       0.00000000       0.00000000       0.00000000     -26.18758011
Th       0.00000000       0.00000000       0.99393939       0.00000000       0.00000000      26.18758011
2
Properties=species:S:1:pos:R:3:forces:R:3 energy=12.415321536351255 pbc="F F F"
Th       0.00000000       0.00000000       0.00000000       0.00000000       0.00000000     -17.60735512
Th       0.00000000       0.00000000       1.05353535       0.00000000       0.00000000      17.60735512
2
Properties=species:S:1:pos:R:3:forces:R:3 energy=11.43906876176451 pbc="F F F"
Th       0.00000000       0.00000000       0.00000000       0.00000000       0.00000000     -16.19433975
Th       0.00000000       0.00000000       1.11313131       0.00000000       0.00000000      16.19433975
2
Properties=species:S:1:pos:R:3:forces:R:3 energy=10.378120399220919 pbc="F F F"
Th       0.00000000       0.00000000       0.00000000       0.00000000       0.00000000     -20.16616821
Th       0.00000000       0.00000000       1.17272727       0.00000000       0.00000000      20.16616821
2
Properties=species:S:1:pos:R:3:forces:R:3 energy=8.964156428458763 pbc="F F F"
Th       0.00000000       0.00000000       0.00000000       0.00000000       0.00000000     -27.71203804
Th       0.00000000       0.00000000       1.23232323       0.00000000       0.00000000      27.71203804
2
Properties=species:S:1:pos:R:3:forces:R:3 energy=7.04619834761842 pbc="F F F"
Th       0.00000000       0.00000000       0.00000000       0.00000000       0.00000000     -36.69881058
Th       0.00000000       0.00000000       1.29191919       0.00000000       0.00000000      36.69881058
2
Properties=species:S:1:pos:R:3:forces:R:3 energy=4.6122432751100435 pbc="F F F"
Th       0.00000000       0.00000000       0.00000000       0.00000000       0.00000000     -44.52535248
Th       0.00000000       0.00000000       1.35151515       0.00000000       0.00000000      44.52535248
2
Properties=species:S:1:pos:R:3:forces:R:3 energy=1.8338287369385124 pbc="F F F"
Th       0.00000000       0.00000000       0.00000000       0.00000000       0.00000000     -47.56930923
Th       0.00000000       0.00000000       1.41111111       0.00000000       0.00000000      47.56930923
2
Properties=species:S:1:pos:R:3:forces:R:3 energy=-0.8955449693424782 pbc="F F F"
Th       0.00000000       0.00000000       0.00000000       0.00000000       0.00000000     -42.67145157
Th       0.00000000       0.00000000       1.47070707       0.00000000       0.00000000      42.67145157
2
Properties=species:S:1:pos:R:3:forces:R:3 energy=-3.13372606400377 pbc="F F F"
Th       0.00000000       0.00000000       0.00000000       0.00000000       0.00000000     -31.93096542
Th       0.00000000       0.00000000       1.53030303       0.00000000       0.00000000      31.93096542
2
Properties=species:S:1:pos:R:3:forces:R:3 energy=-4.690075984695185 pbc="F F F"
Th       0.00000000       0.00000000       0.00000000       0.00000000       0.00000000     -20.46799660
Th       0.00000000       0.00000000       1.58989899       0.00000000       0.00000000      20.46799660
2
Properties=species:S:1:pos:R:3:forces:R:3 energy=-5.599657463144965 pbc="F F F"
Th       0.00000000       0.00000000       0.00000000       0.00000000       0.00000000     -10.24055099
Th       0.00000000       0.00000000       1.64949495       0.00000000       0.00000000      10.24055099
2
Properties=species:S:1:pos:R:3:forces:R:3 energy=-5.924613886179313 pbc="F F F"
Th       0.00000000       0.00000000       0.00000000       0.00000000       0.00000000      -0.76616418
Th       0.00000000       0.00000000       1.70909091       0.00000000       0.00000000       0.76616418
2
Properties=species:S:1:pos:R:3:forces:R:3 energy=-5.718017503602776 pbc="F F F"
Th       0.00000000       0.00000000       0.00000000       0.00000000       0.00000000       7.26775599
Th       0.00000000       0.00000000       1.76868687       0.00000000       0.00000000      -7.26775599
2
Properties=species:S:1:pos:R:3:forces:R:3 energy=-5.133978519003304 pbc="F F F"
Th       0.00000000       0.00000000       0.00000000       0.00000000       0.00000000      11.57522106
Th       0.00000000       0.00000000       1.82828283       0.00000000       0.00000000     -11.57522106
2
Properties=species:S:1:pos:R:3:forces:R:3 energy=-4.4250801573356915 pbc="F F F"
Th       0.00000000       0.00000000       0.00000000       0.00000000       0.00000000      11.59557247
Th       0.00000000       0.00000000       1.88787879       0.00000000       0.00000000     -11.59557247
2
Properties=species:S:1:pos:R:3:forces:R:3 energy=-3.806135346910887 pbc="F F F"
Th       0.00000000       0.00000000       0.00000000       0.00000000       0.00000000       8.88778496
Th       0.00000000       0.00000000       1.94747475       0.00000000       0.00000000      -8.88778496
2
Properties=species:S:1:pos:R:3:forces:R:3 energy=-3.382512861980612 pbc="F F F"
Th       0.00000000       0.00000000       0.00000000       0.00000000       0.00000000       5.31501007
Th       0.00000000       0.00000000       2.00707071       0.00000000       0.00000000      -5.31501007
2
Properties=species:S:1:pos:R:3:forces:R:3 energy=-3.1631492170965396 pbc="F F F"
Th       0.00000000       0.00000000       0.00000000       0.00000000       0.00000000       2.19364977
Th       0.00000000       0.00000000       2.06666667       0.00000000       0.00000000      -2.19364977
2
Properties=species:S:1:pos:R:3:forces:R:3 energy=-3.100357643010176 pbc="F F F"
Th       0.00000000       0.00000000       0.00000000       0.00000000       0.00000000       0.08906165
Th       0.00000000       0.00000000       2.12626263       0.00000000       0.00000000      -0.08906165
2
Properties=species:S:1:pos:R:3:forces:R:3 energy=-3.134390715559305 pbc="F F F"
Th       0.00000000       0.00000000       0.00000000       0.00000000       0.00000000      -1.10954380
Th       0.00000000       0.00000000       2.18585859       0.00000000       0.00000000       1.10954380
2
Properties=species:S:1:pos:R:3:forces:R:3 energy=-3.221735345113453 pbc="F F F"
Th       0.00000000       0.00000000       0.00000000       0.00000000       0.00000000      -1.75630248
Th       0.00000000       0.00000000       2.24545455       0.00000000       0.00000000       1.75630248
2
Properties=species:S:1:pos:R:3:forces:R:3 energy=-3.3380143306815526 pbc="F F F"
Th       0.00000000       0.00000000       0.00000000       0.00000000       0.00000000      -2.11044455
Th       0.00000000       0.00000000       2.30505051       0.00000000       0.00000000       2.11044455
2
Properties=species:S:1:pos:R:3:forces:R:3 energy=-3.4698830145880155 pbc="F F F"
Th       0.00000000       0.00000000       0.00000000       0.00000000       0.00000000      -2.29120779
Th       0.00000000       0.00000000       2.36464646       0.00000000       0.00000000       2.29120779
2
Properties=species:S:1:pos:R:3:forces:R:3 energy=-3.608604353260528 pbc="F F F"
Th       0.00000000       0.00000000       0.00000000       0.00000000       0.00000000      -2.34524536
Th       0.00000000       0.00000000       2.42424242       0.00000000       0.00000000       2.34524536
2
Properties=species:S:1:pos:R:3:forces:R:3 energy=-3.747390047893332 pbc="F F F"
Th       0.00000000       0.00000000       0.00000000       0.00000000       0.00000000      -2.29702115
Th       0.00000000       0.00000000       2.48383838       0.00000000       0.00000000       2.29702115
2
Properties=species:S:1:pos:R:3:forces:R:3 energy=-3.8807516197600656 pbc="F F F"
Th       0.00000000       0.00000000       0.00000000       0.00000000       0.00000000      -2.16626477
Th       0.00000000       0.00000000       2.54343434       0.00000000       0.00000000       2.16626477
2
Properties=species:S:1:pos:R:3:forces:R:3 energy=-4.004296060148896 pbc="F F F"
Th       0.00000000       0.00000000       0.00000000       0.00000000       0.00000000      -1.97033668
Th       0.00000000       0.00000000       2.60303030       0.00000000       0.00000000       1.97033668
2
Properties=species:S:1:pos:R:3:forces:R:3 energy=-4.11460295609526 pbc="F F F"
Th       0.00000000       0.00000000       0.00000000       0.00000000       0.00000000      -1.72429347
Th       0.00000000       0.00000000       2.66262626       0.00000000       0.00000000       1.72429347
2
Properties=species:S:1:pos:R:3:forces:R:3 energy=-4.209108268828153 pbc="F F F"
Th       0.00000000       0.00000000       0.00000000       0.00000000       0.00000000      -1.44253790
Th       0.00000000       0.00000000       2.72222222       0.00000000       0.00000000       1.44253790
2
Properties=species:S:1:pos:R:3:forces:R:3 energy=-4.286148679625837 pbc="F F F"
Th       0.00000000       0.00000000       0.00000000       0.00000000       0.00000000      -1.14104867
Th       0.00000000       0.00000000       2.78181818       0.00000000       0.00000000       1.14104867
2
Properties=species:S:1:pos:R:3:forces:R:3 energy=-4.345076292159062 pbc="F F F"
Th       0.00000000       0.00000000       0.00000000       0.00000000       0.00000000      -0.83776402
Th       0.00000000       0.00000000       2.84141414       0.00000000       0.00000000       0.83776402
2
Properties=species:S:1:pos:R:3:forces:R:3 energy=-4.386311350675533 pbc="F F F"
Th       0.00000000       0.00000000       0.00000000       0.00000000       0.00000000      -0.54983288
Th       0.00000000       0.00000000       2.90101010       0.00000000       0.00000000       0.54983288
2
Properties=species:S:1:pos:R:3:forces:R:3 energy=-4.411154690941269 pbc="F F F"
Th       0.00000000       0.00000000       0.00000000       0.00000000       0.00000000      -0.28884599
Th       0.00000000       0.00000000       2.96060606       0.00000000       0.00000000       0.28884599
2
Properties=species:S:1:pos:R:3:forces:R:3 energy=-4.421337129126102 pbc="F F F"
Th       0.00000000       0.00000000       0.00000000       0.00000000       0.00000000      -0.05759816
Th       0.00000000       0.00000000       3.02020202       0.00000000       0.00000000       0.05759816
2
Properties=species:S:1:pos:R:3:forces:R:3 energy=-4.418505456689712 pbc="F F F"
Th       0.00000000       0.00000000       0.00000000       0.00000000       0.00000000       0.14926347
Th       0.00000000       0.00000000       3.07979798       0.00000000       0.00000000      -0.14926347
2
Properties=species:S:1:pos:R:3:forces:R:3 energy=-4.403852967611751 pbc="F F F"
Th       0.00000000       0.00000000       0.00000000       0.00000000       0.00000000       0.34056893
Th       0.00000000       0.00000000       3.13939394       0.00000000       0.00000000      -0.34056893
2
Properties=species:S:1:pos:R:3:forces:R:3 energy=-4.378085839036284 pbc="F F F"
Th       0.00000000       0.00000000       0.00000000       0.00000000       0.00000000       0.52299321
Th       0.00000000       0.00000000       3.19898990       0.00000000       0.00000000      -0.52299321
2
Properties=species:S:1:pos:R:3:forces:R:3 energy=-4.341660448792921 pbc="F F F"
Th       0.00000000       0.00000000       0.00000000       0.00000000       0.00000000       0.69809586
Th       0.00000000       0.00000000       3.25858586       0.00000000       0.00000000      -0.69809586
2
Properties=species:S:1:pos:R:3:forces:R:3 energy=-4.29506672603858 pbc="F F F"
Th       0.00000000       0.00000000       0.00000000       0.00000000       0.00000000       0.86371356
Th       0.00000000       0.00000000       3.31818182       0.00000000       0.00000000      -0.86371356
2
Properties=species:S:1:pos:R:3:forces:R:3 energy=-4.238940136633736 pbc="F F F"
Th       0.00000000       0.00000000       0.00000000       0.00000000       0.00000000       1.01798117
Th       0.00000000       0.00000000       3.37777778       0.00000000       0.00000000      -1.01798117
2
Properties=species:S:1:pos:R:3:forces:R:3 energy=-4.1739339621399525 pbc="F F F"
Th       0.00000000       0.00000000       0.00000000       0.00000000       0.00000000       1.16216981
Th       0.00000000       0.00000000       3.43737374       0.00000000       0.00000000      -1.16216981
2
Properties=species:S:1:pos:R:3:forces:R:3 energy=-4.1005426973451105 pbc="F F F"
Th       0.00000000       0.00000000       0.00000000       0.00000000       0.00000000       1.30009544
Th       0.00000000       0.00000000       3.49696970       0.00000000       0.00000000      -1.30009544
2
Properties=species:S:1:pos:R:3:forces:R:3 energy=-4.019034238016636 pbc="F F F"
Th       0.00000000       0.00000000       0.00000000       0.00000000       0.00000000       1.43477082
Th       0.00000000       0.00000000       3.55656566       0.00000000       0.00000000      -1.43477082
2
Properties=species:S:1:pos:R:3:forces:R:3 energy=-3.929615254696376 pbc="F F F"
Th       0.00000000       0.00000000       0.00000000       0.00000000       0.00000000       1.56491864
Th       0.00000000       0.00000000       3.61616162       0.00000000       0.00000000      -1.56491864
2
Properties=species:S:1:pos:R:3:forces:R:3 energy=-3.8327325054353323 pbc="F F F"
Th       0.00000000       0.00000000       0.00000000       0.00000000       0.00000000       1.68368781
Th       0.00000000       0.00000000       3.67575758       0.00000000       0.00000000      -1.68368781
2
Properties=species:S:1:pos:R:3:forces:R:3 energy=-3.7293691647449085 pbc="F F F"
Th       0.00000000       0.00000000       0.00000000       0.00000000       0.00000000       1.78055513
Th       0.00000000       0.00000000       3.73535354       0.00000000       0.00000000      -1.78055513
2
Properties=species:S:1:pos:R:3:forces:R:3 energy=-3.6211448580298233 pbc="F F F"
Th       0.00000000       0.00000000       0.00000000       0.00000000       0.00000000       1.84532714
Th       0.00000000       0.00000000       3.79494949       0.00000000       0.00000000      -1.84532714
2
Properties=species:S:1:pos:R:3:forces:R:3 energy=-3.5101814089214036 pbc="F F F"
Th       0.00000000       0.00000000       0.00000000       0.00000000       0.00000000       1.87199199
Th       0.00000000       0.00000000       3.85454545       0.00000000       0.00000000      -1.87199199
2
Properties=species:S:1:pos:R:3:forces:R:3 energy=-3.3987817758146504 pbc="F F F"
Th       0.00000000       0.00000000       0.00000000       0.00000000       0.00000000       1.86047077
Th       0.00000000       0.00000000       3.91414141       0.00000000       0.00000000      -1.86047077
2
Properties=species:S:1:pos:R:3:forces:R:3 energy=-3.289090130330883 pbc="F F F"
Th       0.00000000       0.00000000       0.00000000       0.00000000       0.00000000       1.81569993
Th       0.00000000       0.00000000       3.97373737       0.00000000       0.00000000      -1.81569993
2
Properties=species:S:1:pos:R:3:forces:R:3 energy=-3.18287380568817 pbc="F F F"
Th       0.00000000       0.00000000       0.00000000       0.00000000       0.00000000       1.74529278
Th       0.00000000       0.00000000       4.03333333       0.00000000       0.00000000      -1.74529278
2
Properties=species:S:1:pos:R:3:forces:R:3 energy=-3.0814149786386853 pbc="F F F"
Th       0.00000000       0.00000000       0.00000000       0.00000000       0.00000000       1.65725279
Th       0.00000000       0.00000000       4.09292929       0.00000000       0.00000000      -1.65725279
2
Properties=species:S:1:pos:R:3:forces:R:3 energy=-2.985550329316215 pbc="F F F"
Th       0.00000000       0.00000000       0.00000000       0.00000000       0.00000000       1.55865693
Th       0.00000000       0.00000000       4.15252525       0.00000000       0.00000000      -1.55865693
2
Properties=species:S:1:pos:R:3:forces:R:3 energy=-2.8957309793341772 pbc="F F F"
Th       0.00000000       0.00000000       0.00000000       0.00000000       0.00000000       1.45528150
Th       0.00000000       0.00000000       4.21212121       0.00000000       0.00000000      -1.45528150
2
Properties=species:S:1:pos:R:3:forces:R:3 energy=-2.8120956292686055 pbc="F F F"
Th       0.00000000       0.00000000       0.00000000       0.00000000       0.00000000       1.35170817
Th       0.00000000       0.00000000       4.27171717       0.00000000       0.00000000      -1.35170817
2
Properties=species:S:1:pos:R:3:forces:R:3 energy=-2.7345498340036536 pbc="F F F"
Th       0.00000000       0.00000000       0.00000000       0.00000000       0.00000000       1.25153816
Th       0.00000000       0.00000000       4.33131313       0.00000000       0.00000000      -1.25153816
2
Properties=species:S:1:pos:R:3:forces:R:3 energy=-2.6628013266951687 pbc="F F F"
Th       0.00000000       0.00000000       0.00000000       0.00000000       0.00000000       1.15748537
Th       0.00000000       0.00000000       4.39090909       0.00000000       0.00000000      -1.15748537
2
Properties=species:S:1:pos:R:3:forces:R:3 energy=-2.596424862288562 pbc="F F F"
Th       0.00000000       0.00000000       0.00000000       0.00000000       0.00000000       1.07150614
Th       0.00000000       0.00000000       4.45050505       0.00000000       0.00000000      -1.07150614
2
Properties=species:S:1:pos:R:3:forces:R:3 energy=-2.534900993384086 pbc="F F F"
Th       0.00000000       0.00000000       0.00000000       0.00000000       0.00000000       0.99484694
Th       0.00000000       0.00000000       4.51010101       0.00000000       0.00000000      -0.99484694
2
Properties=species:S:1:pos:R:3:forces:R:3 energy=-2.477649560543602 pbc="F F F"
Th       0.00000000       0.00000000       0.00000000       0.00000000       0.00000000       0.92807138
Th       0.00000000       0.00000000       4.56969697       0.00000000       0.00000000      -0.92807138
2
Properties=species:S:1:pos:R:3:forces:R:3 energy=-2.4240867020094683 pbc="F F F"
Th       0.00000000       0.00000000       0.00000000       0.00000000       0.00000000       0.87105477
Th       0.00000000       0.00000000       4.62929293       0.00000000       0.00000000      -0.87105477
2
Properties=species:S:1:pos:R:3:forces:R:3 energy=-2.3736509403640644 pbc="F F F"
Th       0.00000000       0.00000000       0.00000000       0.00000000       0.00000000       0.82294595
Th       0.00000000       0.00000000       4.68888889       0.00000000       0.00000000      -0.82294595
2
Properties=species:S:1:pos:R:3:forces:R:3 energy=-2.325852442476906 pbc="F F F"
Th       0.00000000       0.00000000       0.00000000       0.00000000       0.00000000       0.78213906
Th       0.00000000       0.00000000       4.74848485       0.00000000       0.00000000      -0.78213906
2
Properties=species:S:1:pos:R:3:forces:R:3 energy=-2.2803246613016452 pbc="F F F"
Th       0.00000000       0.00000000       0.00000000       0.00000000       0.00000000       0.74642700
Th       0.00000000       0.00000000       4.80808081       0.00000000       0.00000000      -0.74642700
2
Properties=species:S:1:pos:R:3:forces:R:3 energy=-2.2368335668444743 pbc="F F F"
Th       0.00000000       0.00000000       0.00000000       0.00000000       0.00000000       0.71326655
Th       0.00000000       0.00000000       4.86767677       0.00000000       0.00000000      -0.71326655
2
Properties=species:S:1:pos:R:3:forces:R:3 energy=-2.1953057035287245 pbc="F F F"
Th       0.00000000       0.00000000       0.00000000       0.00000000       0.00000000       0.68019849
Th       0.00000000       0.00000000       4.92727273       0.00000000       0.00000000      -0.68019849
2
Properties=species:S:1:pos:R:3:forces:R:3 energy=-2.1557964805238483 pbc="F F F"
Th       0.00000000       0.00000000       0.00000000       0.00000000       0.00000000       0.64526153
Th       0.00000000       0.00000000       4.98686869       0.00000000       0.00000000      -0.64526153
2
Properties=species:S:1:pos:R:3:forces:R:3 energy=-2.1184613167617035 pbc="F F F"
Th       0.00000000       0.00000000       0.00000000       0.00000000       0.00000000       0.60724038
Th       0.00000000       0.00000000       5.04646465       0.00000000       0.00000000      -0.60724038
2
Properties=species:S:1:pos:R:3:forces:R:3 energy=-2.0834909978233944 pbc="F F F"
Th       0.00000000       0.00000000       0.00000000       0.00000000       0.00000000       0.56573498
Th       0.00000000       0.00000000       5.10606061       0.00000000       0.00000000      -0.56573498
2
Properties=species:S:1:pos:R:3:forces:R:3 energy=-2.051089383802126 pbc="F F F"
Th       0.00000000       0.00000000       0.00000000       0.00000000       0.00000000       0.52100188
Th       0.00000000       0.00000000       5.16565657       0.00000000       0.00000000      -0.52100188
2
Properties=species:S:1:pos:R:3:forces:R:3 energy=-2.021438630700924 pbc="F F F"
Th       0.00000000       0.00000000       0.00000000       0.00000000       0.00000000       0.47376215
Th       0.00000000       0.00000000       5.22525253       0.00000000       0.00000000      -0.47376215
2
Properties=species:S:1:pos:R:3:forces:R:3 energy=-1.9946541534958129 pbc="F F F"
Th       0.00000000       0.00000000       0.00000000       0.00000000       0.00000000       0.42497078
Th       0.00000000       0.00000000       5.28484848       0.00000000       0.00000000      -0.42497078
2
Properties=species:S:1:pos:R:3:forces:R:3 energy=-1.970796459533698 pbc="F F F"
Th       0.00000000       0.00000000       0.00000000       0.00000000       0.00000000       0.37565070
Th       0.00000000       0.00000000       5.34444444       0.00000000       0.00000000      -0.37565070
2
Properties=species:S:1:pos:R:3:forces:R:3 energy=-1.9498685742772495 pbc="F F F"
Th       0.00000000       0.00000000       0.00000000       0.00000000       0.00000000       0.32682812
Th       0.00000000       0.00000000       5.40404040       0.00000000       0.00000000      -0.32682812
2
Properties=species:S:1:pos:R:3:forces:R:3 energy=-1.931808041611212 pbc="F F F"
Th       0.00000000       0.00000000       0.00000000       0.00000000       0.00000000       0.27948123
Th       0.00000000       0.00000000       5.46363636       0.00000000       0.00000000      -0.27948123
2
Properties=species:S:1:pos:R:3:forces:R:3 energy=-1.9165145665583405 pbc="F F F"
Th       0.00000000       0.00000000       0.00000000       0.00000000       0.00000000       0.23445611
Th       0.00000000       0.00000000       5.52323232       0.00000000       0.00000000      -0.23445611
2
Properties=species:S:1:pos:R:3:forces:R:3 energy=-1.9038067233003602 pbc="F F F"
Th       0.00000000       0.00000000       0.00000000       0.00000000       0.00000000       0.19252792
Th       0.00000000       0.00000000       5.58282828       0.00000000       0.00000000      -0.19252792
2
Properties=species:S:1:pos:R:3:forces:R:3 energy=-1.8934923053298303 pbc="F F F"
Th       0.00000000       0.00000000       0.00000000       0.00000000       0.00000000       0.15434167
Th       0.00000000       0.00000000       5.64242424       0.00000000       0.00000000      -0.15434167
2
Properties=species:S:1:pos:R:3:forces:R:3 energy=-1.8853216524294387 pbc="F F F"
Th       0.00000000       0.00000000       0.00000000       0.00000000       0.00000000       0.12046932
Th       0.00000000       0.00000000       5.70202020       0.00000000       0.00000000      -0.12046932
2
Properties=species:S:1:pos:R:3:forces:R:3 energy=-1.8790379431529518 pbc="F F F"
Th       0.00000000       0.00000000       0.00000000       0.00000000       0.00000000       0.09144020
Th       0.00000000       0.00000000       5.76161616       0.00000000       0.00000000      -0.09144020
2
Properties=species:S:1:pos:R:3:forces:R:3 energy=-1.8743197221084105 pbc="F F F"
Th       0.00000000       0.00000000       0.00000000       0.00000000       0.00000000       0.06775998
Th       0.00000000       0.00000000       5.82121212       0.00000000       0.00000000      -0.06775998
2
Properties=species:S:1:pos:R:3:forces:R:3 energy=-1.8708473818957854 pbc="F F F"
Th       0.00000000       0.00000000       0.00000000       0.00000000       0.00000000       0.04996190
Th       0.00000000       0.00000000       5.88080808       0.00000000       0.00000000      -0.04996190
2
Properties=species:S:1:pos:R:3:forces:R:3 energy=-1.8682358265294101 pbc="F F F"
Th       0.00000000       0.00000000       0.00000000       0.00000000       0.00000000       0.03858379
Th       0.00000000       0.00000000       5.94040404       0.00000000       0.00000000      -0.03858379
2
Properties=species:S:1:pos:R:3:forces:R:3 energy=-1.8661054021332155 pbc="F F F"
Th       0.00000000       0.00000000       0.00000000       0.00000000       0.00000000       0.03418691
Th       0.00000000       0.00000000       6.00000000       0.00000000       0.00000000      -0.03418691
