2
Properties=species:S:1:pos:R:3:forces:R:3 energy=11859.671026738208 pbc="F F F"
Ti       0.00000000       0.00000000       0.00000000       0.00000000       0.00000000 -260559.87500000
Ti       0.00000000       0.00000000       0.10000000       0.00000000       0.00000000  260559.87500000
2
Properties=species:S:1:pos:R:3:forces:R:3 energy=3854.798712285082 pbc="F F F"
Ti       0.00000000       0.00000000       0.00000000       0.00000000       0.00000000  -63324.09375000
Ti       0.00000000       0.00000000       0.15959596       0.00000000       0.00000000   63324.09375000
2
Properties=species:S:1:pos:R:3:forces:R:3 energy=1594.1326966600818 pbc="F F F"
Ti       0.00000000       0.00000000       0.00000000       0.00000000       0.00000000  -21467.79687500
Ti       0.00000000       0.00000000       0.21919192       0.00000000       0.00000000   21467.79687500
2
Properties=species:S:1:pos:R:3:forces:R:3 energy=757.1789002733631 pbc="F F F"
Ti       0.00000000       0.00000000       0.00000000       0.00000000       0.00000000   -8822.48828125
Ti       0.00000000       0.00000000       0.27878788       0.00000000       0.00000000    8822.48828125
2
Properties=species:S:1:pos:R:3:forces:R:3 energy=392.87979749332777 pbc="F F F"
Ti       0.00000000       0.00000000       0.00000000       0.00000000       0.00000000   -4100.72949219
Ti       0.00000000       0.00000000       0.33838384       0.00000000       0.00000000    4100.72949219
2
Properties=species:S:1:pos:R:3:forces:R:3 energy=216.87514356583154 pbc="F F F"
Ti       0.00000000       0.00000000       0.00000000       0.00000000       0.00000000   -2068.88964844
Ti       0.00000000       0.00000000       0.39797980       0.00000000       0.00000000    2068.88964844
2
Properties=species:S:1:pos:R:3:forces:R:3 energy=125.64446120228813 pbc="F F F"
Ti       0.00000000       0.00000000       0.00000000       0.00000000       0.00000000   -1104.94897461
Ti       0.00000000       0.00000000       0.45757576       0.00000000       0.00000000    1104.94897461
2
Properties=species:S:1:pos:R:3:forces:R:3 energy=75.9861512816038 pbc="F F F"
Ti       0.00000000       0.00000000       0.00000000       0.00000000       0.00000000    -613.58941650
Ti       0.00000000       0.00000000       0.51717172       0.00000000       0.00000000     613.58941650
2
Properties=species:S:1:pos:R:3:forces:R:3 energy=48.14805469462967 pbc="F F F"
Ti       0.00000000       0.00000000       0.00000000       0.00000000       0.00000000    -345.79824829
Ti       0.00000000       0.00000000       0.57676768       0.00000000       0.00000000     345.79824829
2
Properties=species:S:1:pos:R:3:forces:R:3 energy=32.6727854308557 pbc="F F F"
Ti       0.00000000       0.00000000       0.00000000       0.00000000       0.00000000    -185.34933472
Ti       0.00000000       0.00000000       0.63636364       0.00000000       0.00000000     185.34933472
2
Properties=species:S:1:pos:R:3:forces:R:3 energy=25.126705880766778 pbc="F F F"
Ti       0.00000000       0.00000000       0.00000000       0.00000000       0.00000000     -72.53767395
Ti       0.00000000       0.00000000       0.69595960       0.00000000       0.00000000      72.53767395
2
Properties=species:S:1:pos:R:3:forces:R:3 energy=23.700537568875024 pbc="F F F"
Ti       0.00000000       0.00000000       0.00000000       0.00000000       0.00000000      23.14721107
Ti       0.00000000       0.00000000       0.75555556       0.00000000       0.00000000     -23.14721107
2
Properties=species:S:1:pos:R:3:forces:R:3 energy=27.68779858376144 pbc="F F F"
Ti       0.00000000       0.00000000       0.00000000       0.00000000       0.00000000     107.89810181
Ti       0.00000000       0.00000000       0.81515152       0.00000000       0.00000000    -107.89810181
2
Properties=species:S:1:pos:R:3:forces:R:3 energy=35.579039939306014 pbc="F F F"
Ti       0.00000000       0.00000000       0.00000000       0.00000000       0.00000000      64.41973877
Ti       0.00000000       0.00000000       0.87474747       0.00000000       0.00000000     -64.41973877
2
Properties=species:S:1:pos:R:3:forces:R:3 energy=39.992370419744425 pbc="F F F"
Ti       0.00000000       0.00000000       0.00000000       0.00000000       0.00000000      72.44625092
Ti       0.00000000       0.00000000       0.93434343       0.00000000       0.00000000     -72.44625092
2
Properties=species:S:1:pos:R:3:forces:R:3 energy=42.624081026603534 pbc="F F F"
Ti       0.00000000       0.00000000       0.00000000       0.00000000       0.00000000       3.93463206
Ti       0.00000000       0.00000000       0.99393939       0.00000000       0.00000000      -3.93463206
2
Properties=species:S:1:pos:R:3:forces:R:3 energy=39.594796349637 pbc="F F F"
Ti       0.00000000       0.00000000       0.00000000       0.00000000       0.00000000    -102.92147827
Ti       0.00000000       0.00000000       1.05353535       0.00000000       0.00000000     102.92147827
2
Properties=species:S:1:pos:R:3:forces:R:3 energy=28.45037863740596 pbc="F F F"
Ti       0.00000000       0.00000000       0.00000000       0.00000000       0.00000000    -213.83387756
Ti       0.00000000       0.00000000       1.11313131       0.00000000       0.00000000     213.83387756
2
Properties=species:S:1:pos:R:3:forces:R:3 energy=15.657180422371049 pbc="F F F"
Ti       0.00000000       0.00000000       0.00000000       0.00000000       0.00000000    -208.65954590
Ti       0.00000000       0.00000000       1.17272727       0.00000000       0.00000000     208.65954590
2
Properties=species:S:1:pos:R:3:forces:R:3 energy=4.2318152703245975 pbc="F F F"
Ti       0.00000000       0.00000000       0.00000000       0.00000000       0.00000000    -172.34822083
Ti       0.00000000       0.00000000       1.23232323       0.00000000       0.00000000     172.34822083
2
Properties=species:S:1:pos:R:3:forces:R:3 energy=-3.749935387834762 pbc="F F F"
Ti       0.00000000       0.00000000       0.00000000       0.00000000       0.00000000     -70.17439270
Ti       0.00000000       0.00000000       1.29191919       0.00000000       0.00000000      70.17439270
2
Properties=species:S:1:pos:R:3:forces:R:3 energy=-5.701398655167484 pbc="F F F"
Ti       0.00000000       0.00000000       0.00000000       0.00000000       0.00000000     -18.37978363
Ti       0.00000000       0.00000000       1.35151515       0.00000000       0.00000000      18.37978363
2
Properties=species:S:1:pos:R:3:forces:R:3 energy=-6.643651096861706 pbc="F F F"
Ti       0.00000000       0.00000000       0.00000000       0.00000000       0.00000000     -13.92759132
Ti       0.00000000       0.00000000       1.41111111       0.00000000       0.00000000      13.92759132
2
Properties=species:S:1:pos:R:3:forces:R:3 energy=-7.407324284299175 pbc="F F F"
Ti       0.00000000       0.00000000       0.00000000       0.00000000       0.00000000     -11.54370689
Ti       0.00000000       0.00000000       1.47070707       0.00000000       0.00000000      11.54370689
2
Properties=species:S:1:pos:R:3:forces:R:3 energy=-7.988943814050647 pbc="F F F"
Ti       0.00000000       0.00000000       0.00000000       0.00000000       0.00000000      -7.91638851
Ti       0.00000000       0.00000000       1.53030303       0.00000000       0.00000000       7.91638851
2
Properties=species:S:1:pos:R:3:forces:R:3 energy=-8.375551446272624 pbc="F F F"
Ti       0.00000000       0.00000000       0.00000000       0.00000000       0.00000000      -5.43387127
Ti       0.00000000       0.00000000       1.58989899       0.00000000       0.00000000       5.43387127
2
Properties=species:S:1:pos:R:3:forces:R:3 energy=-8.671731675301002 pbc="F F F"
Ti       0.00000000       0.00000000       0.00000000       0.00000000       0.00000000      -4.58245182
Ti       0.00000000       0.00000000       1.64949495       0.00000000       0.00000000       4.58245182
2
Properties=species:S:1:pos:R:3:forces:R:3 energy=-8.908127268853661 pbc="F F F"
Ti       0.00000000       0.00000000       0.00000000       0.00000000       0.00000000      -3.17316532
Ti       0.00000000       0.00000000       1.70909091       0.00000000       0.00000000       3.17316532
2
Properties=species:S:1:pos:R:3:forces:R:3 energy=-9.03809854690009 pbc="F F F"
Ti       0.00000000       0.00000000       0.00000000       0.00000000       0.00000000      -1.18767273
Ti       0.00000000       0.00000000       1.76868687       0.00000000       0.00000000       1.18767273
2
Properties=species:S:1:pos:R:3:forces:R:3 energy=-9.05757418191671 pbc="F F F"
Ti       0.00000000       0.00000000       0.00000000       0.00000000       0.00000000       0.43104535
Ti       0.00000000       0.00000000       1.82828283       0.00000000       0.00000000      -0.43104535
2
Properties=species:S:1:pos:R:3:forces:R:3 energy=-8.999540726134677 pbc="F F F"
Ti       0.00000000       0.00000000       0.00000000       0.00000000       0.00000000       1.41597235
Ti       0.00000000       0.00000000       1.88787879       0.00000000       0.00000000      -1.41597235
2
Properties=species:S:1:pos:R:3:forces:R:3 energy=-8.89899751045124 pbc="F F F"
Ti       0.00000000       0.00000000       0.00000000       0.00000000       0.00000000       1.88884592
Ti       0.00000000       0.00000000       1.94747475       0.00000000       0.00000000      -1.88884592
2
Properties=species:S:1:pos:R:3:forces:R:3 energy=-8.780852654355424 pbc="F F F"
Ti       0.00000000       0.00000000       0.00000000       0.00000000       0.00000000       2.03607821
Ti       0.00000000       0.00000000       2.00707071       0.00000000       0.00000000      -2.03607821
2
Properties=species:S:1:pos:R:3:forces:R:3 energy=-8.659593848556224 pbc="F F F"
Ti       0.00000000       0.00000000       0.00000000       0.00000000       0.00000000       2.01724410
Ti       0.00000000       0.00000000       2.06666667       0.00000000       0.00000000      -2.01724410
2
Properties=species:S:1:pos:R:3:forces:R:3 energy=-8.541120068577113 pbc="F F F"
Ti       0.00000000       0.00000000       0.00000000       0.00000000       0.00000000       1.96170390
Ti       0.00000000       0.00000000       2.12626263       0.00000000       0.00000000      -1.96170390
2
Properties=species:S:1:pos:R:3:forces:R:3 energy=-8.42460095424934 pbc="F F F"
Ti       0.00000000       0.00000000       0.00000000       0.00000000       0.00000000       1.96327674
Ti       0.00000000       0.00000000       2.18585859       0.00000000       0.00000000      -1.96327674
2
Properties=species:S:1:pos:R:3:forces:R:3 energy=-8.305188311382212 pbc="F F F"
Ti       0.00000000       0.00000000       0.00000000       0.00000000       0.00000000       2.05954146
Ti       0.00000000       0.00000000       2.24545455       0.00000000       0.00000000      -2.05954146
2
Properties=species:S:1:pos:R:3:forces:R:3 energy=-8.177682925673688 pbc="F F F"
Ti       0.00000000       0.00000000       0.00000000       0.00000000       0.00000000       2.22700453
Ti       0.00000000       0.00000000       2.30505051       0.00000000       0.00000000      -2.22700453
2
Properties=species:S:1:pos:R:3:forces:R:3 energy=-8.039432350342837 pbc="F F F"
Ti       0.00000000       0.00000000       0.00000000       0.00000000       0.00000000       2.41071177
Ti       0.00000000       0.00000000       2.36464646       0.00000000       0.00000000      -2.41071177
2
Properties=species:S:1:pos:R:3:forces:R:3 energy=-7.890969987180141 pbc="F F F"
Ti       0.00000000       0.00000000       0.00000000       0.00000000       0.00000000       2.56394982
Ti       0.00000000       0.00000000       2.42424242       0.00000000       0.00000000      -2.56394982
2
Properties=species:S:1:pos:R:3:forces:R:3 energy=-7.734858211159214 pbc="F F F"
Ti       0.00000000       0.00000000       0.00000000       0.00000000       0.00000000       2.66611004
Ti       0.00000000       0.00000000       2.48383838       0.00000000       0.00000000      -2.66611004
2
Properties=species:S:1:pos:R:3:forces:R:3 energy=-7.574204351800996 pbc="F F F"
Ti       0.00000000       0.00000000       0.00000000       0.00000000       0.00000000       2.71750569
Ti       0.00000000       0.00000000       2.54343434       0.00000000       0.00000000      -2.71750569
2
Properties=species:S:1:pos:R:3:forces:R:3 energy=-7.411807003665708 pbc="F F F"
Ti       0.00000000       0.00000000       0.00000000       0.00000000       0.00000000       2.72593260
Ti       0.00000000       0.00000000       2.60303030       0.00000000       0.00000000      -2.72593260
2
Properties=species:S:1:pos:R:3:forces:R:3 energy=-7.250051525203177 pbc="F F F"
Ti       0.00000000       0.00000000       0.00000000       0.00000000       0.00000000       2.69600606
Ti       0.00000000       0.00000000       2.66262626       0.00000000       0.00000000      -2.69600606
2
Properties=species:S:1:pos:R:3:forces:R:3 energy=-7.091263340988913 pbc="F F F"
Ti       0.00000000       0.00000000       0.00000000       0.00000000       0.00000000       2.62563968
Ti       0.00000000       0.00000000       2.72222222       0.00000000       0.00000000      -2.62563968
2
Properties=species:S:1:pos:R:3:forces:R:3 energy=-6.938027238130314 pbc="F F F"
Ti       0.00000000       0.00000000       0.00000000       0.00000000       0.00000000       2.50857162
Ti       0.00000000       0.00000000       2.78181818       0.00000000       0.00000000      -2.50857162
2
Properties=species:S:1:pos:R:3:forces:R:3 energy=-6.79323855953042 pbc="F F F"
Ti       0.00000000       0.00000000       0.00000000       0.00000000       0.00000000       2.34309983
Ti       0.00000000       0.00000000       2.84141414       0.00000000       0.00000000      -2.34309983
2
Properties=species:S:1:pos:R:3:forces:R:3 energy=-6.659301936493955 pbc="F F F"
Ti       0.00000000       0.00000000       0.00000000       0.00000000       0.00000000       2.15125394
Ti       0.00000000       0.00000000       2.90101010       0.00000000       0.00000000      -2.15125394
2
Properties=species:S:1:pos:R:3:forces:R:3 energy=-6.536250813212192 pbc="F F F"
Ti       0.00000000       0.00000000       0.00000000       0.00000000       0.00000000       1.98776829
Ti       0.00000000       0.00000000       2.96060606       0.00000000       0.00000000      -1.98776829
2
Properties=species:S:1:pos:R:3:forces:R:3 energy=-6.421135849594197 pbc="F F F"
Ti       0.00000000       0.00000000       0.00000000       0.00000000       0.00000000       1.88338399
Ti       0.00000000       0.00000000       3.02020202       0.00000000       0.00000000      -1.88338399
2
Properties=species:S:1:pos:R:3:forces:R:3 energy=-6.311441752129361 pbc="F F F"
Ti       0.00000000       0.00000000       0.00000000       0.00000000       0.00000000       1.79563165
Ti       0.00000000       0.00000000       3.07979798       0.00000000       0.00000000      -1.79563165
2
Properties=species:S:1:pos:R:3:forces:R:3 energy=-6.207667662972019 pbc="F F F"
Ti       0.00000000       0.00000000       0.00000000       0.00000000       0.00000000       1.68174958
Ti       0.00000000       0.00000000       3.13939394       0.00000000       0.00000000      -1.68174958
2
Properties=species:S:1:pos:R:3:forces:R:3 energy=-6.111467265413413 pbc="F F F"
Ti       0.00000000       0.00000000       0.00000000       0.00000000       0.00000000       1.54419148
Ti       0.00000000       0.00000000       3.19898990       0.00000000       0.00000000      -1.54419148
2
Properties=species:S:1:pos:R:3:forces:R:3 energy=-6.023761774641918 pbc="F F F"
Ti       0.00000000       0.00000000       0.00000000       0.00000000       0.00000000       1.39880967
Ti       0.00000000       0.00000000       3.25858586       0.00000000       0.00000000      -1.39880967
2
Properties=species:S:1:pos:R:3:forces:R:3 energy=-5.944712408054853 pbc="F F F"
Ti       0.00000000       0.00000000       0.00000000       0.00000000       0.00000000       1.25461411
Ti       0.00000000       0.00000000       3.31818182       0.00000000       0.00000000      -1.25461411
2
Properties=species:S:1:pos:R:3:forces:R:3 energy=-5.874116078882078 pbc="F F F"
Ti       0.00000000       0.00000000       0.00000000       0.00000000       0.00000000       1.11573851
Ti       0.00000000       0.00000000       3.37777778       0.00000000       0.00000000      -1.11573851
2
Properties=species:S:1:pos:R:3:forces:R:3 energy=-5.811539439433322 pbc="F F F"
Ti       0.00000000       0.00000000       0.00000000       0.00000000       0.00000000       0.98631442
Ti       0.00000000       0.00000000       3.43737374       0.00000000       0.00000000      -0.98631442
2
Properties=species:S:1:pos:R:3:forces:R:3 energy=-5.756258735765057 pbc="F F F"
Ti       0.00000000       0.00000000       0.00000000       0.00000000       0.00000000       0.87188607
Ti       0.00000000       0.00000000       3.49696970       0.00000000       0.00000000      -0.87188607
2
Properties=species:S:1:pos:R:3:forces:R:3 energy=-5.707203928655914 pbc="F F F"
Ti       0.00000000       0.00000000       0.00000000       0.00000000       0.00000000       0.77819967
Ti       0.00000000       0.00000000       3.55656566       0.00000000       0.00000000      -0.77819967
2
Properties=species:S:1:pos:R:3:forces:R:3 energy=-5.663010292816019 pbc="F F F"
Ti       0.00000000       0.00000000       0.00000000       0.00000000       0.00000000       0.70922303
Ti       0.00000000       0.00000000       3.61616162       0.00000000       0.00000000      -0.70922303
2
Properties=species:S:1:pos:R:3:forces:R:3 energy=-5.6221638769234215 pbc="F F F"
Ti       0.00000000       0.00000000       0.00000000       0.00000000       0.00000000       0.66564035
Ti       0.00000000       0.00000000       3.67575758       0.00000000       0.00000000      -0.66564035
2
Properties=species:S:1:pos:R:3:forces:R:3 energy=-5.5832248421563095 pbc="F F F"
Ti       0.00000000       0.00000000       0.00000000       0.00000000       0.00000000       0.64440572
Ti       0.00000000       0.00000000       3.73535354       0.00000000       0.00000000      -0.64440572
2
Properties=species:S:1:pos:R:3:forces:R:3 energy=-5.545032405472536 pbc="F F F"
Ti       0.00000000       0.00000000       0.00000000       0.00000000       0.00000000       0.63937980
Ti       0.00000000       0.00000000       3.79494949       0.00000000       0.00000000      -0.63937980
2
Properties=species:S:1:pos:R:3:forces:R:3 energy=-5.506848958472997 pbc="F F F"
Ti       0.00000000       0.00000000       0.00000000       0.00000000       0.00000000       0.64276999
Ti       0.00000000       0.00000000       3.85454545       0.00000000       0.00000000      -0.64276999
2
Properties=species:S:1:pos:R:3:forces:R:3 energy=-5.468406654731283 pbc="F F F"
Ti       0.00000000       0.00000000       0.00000000       0.00000000       0.00000000       0.64685792
Ti       0.00000000       0.00000000       3.91414141       0.00000000       0.00000000      -0.64685792
2
Properties=species:S:1:pos:R:3:forces:R:3 energy=-5.4298590798421476 pbc="F F F"
Ti       0.00000000       0.00000000       0.00000000       0.00000000       0.00000000       0.64545238
Ti       0.00000000       0.00000000       3.97373737       0.00000000       0.00000000      -0.64545238
2
Properties=species:S:1:pos:R:3:forces:R:3 energy=-5.391661671336908 pbc="F F F"
Ti       0.00000000       0.00000000       0.00000000       0.00000000       0.00000000       0.63469195
Ti       0.00000000       0.00000000       4.03333333       0.00000000       0.00000000      -0.63469195
2
Properties=species:S:1:pos:R:3:forces:R:3 energy=-5.354425126935267 pbc="F F F"
Ti       0.00000000       0.00000000       0.00000000       0.00000000       0.00000000       0.61313194
Ti       0.00000000       0.00000000       4.09292929       0.00000000       0.00000000      -0.61313194
2
Properties=species:S:1:pos:R:3:forces:R:3 energy=-5.318785856893737 pbc="F F F"
Ti       0.00000000       0.00000000       0.00000000       0.00000000       0.00000000       0.58130389
Ti       0.00000000       0.00000000       4.15252525       0.00000000       0.00000000      -0.58130389
2
Properties=species:S:1:pos:R:3:forces:R:3 energy=-5.285306299697006 pbc="F F F"
Ti       0.00000000       0.00000000       0.00000000       0.00000000       0.00000000       0.54104859
Ti       0.00000000       0.00000000       4.21212121       0.00000000       0.00000000      -0.54104859
2
Properties=species:S:1:pos:R:3:forces:R:3 energy=-5.254415152686404 pbc="F F F"
Ti       0.00000000       0.00000000       0.00000000       0.00000000       0.00000000       0.49484396
Ti       0.00000000       0.00000000       4.27171717       0.00000000       0.00000000      -0.49484396
2
Properties=species:S:1:pos:R:3:forces:R:3 energy=-5.2263912166173245 pbc="F F F"
Ti       0.00000000       0.00000000       0.00000000       0.00000000       0.00000000       0.44529331
Ti       0.00000000       0.00000000       4.33131313       0.00000000       0.00000000      -0.44529331
2
Properties=species:S:1:pos:R:3:forces:R:3 energy=-5.201358838027746 pbc="F F F"
Ti       0.00000000       0.00000000       0.00000000       0.00000000       0.00000000       0.39478916
Ti       0.00000000       0.00000000       4.39090909       0.00000000       0.00000000      -0.39478916
2
Properties=species:S:1:pos:R:3:forces:R:3 energy=-5.1793135444031675 pbc="F F F"
Ti       0.00000000       0.00000000       0.00000000       0.00000000       0.00000000       0.34535033
Ti       0.00000000       0.00000000       4.45050505       0.00000000       0.00000000      -0.34535033
2
Properties=species:S:1:pos:R:3:forces:R:3 energy=-5.160143356128918 pbc="F F F"
Ti       0.00000000       0.00000000       0.00000000       0.00000000       0.00000000       0.29855916
Ti       0.00000000       0.00000000       4.51010101       0.00000000       0.00000000      -0.29855916
2
Properties=species:S:1:pos:R:3:forces:R:3 energy=-5.143652254545048 pbc="F F F"
Ti       0.00000000       0.00000000       0.00000000       0.00000000       0.00000000       0.25556284
Ti       0.00000000       0.00000000       4.56969697       0.00000000       0.00000000      -0.25556284
2
Properties=species:S:1:pos:R:3:forces:R:3 energy=-5.129591151019036 pbc="F F F"
Ti       0.00000000       0.00000000       0.00000000       0.00000000       0.00000000       0.21710671
Ti       0.00000000       0.00000000       4.62929293       0.00000000       0.00000000      -0.21710671
2
Properties=species:S:1:pos:R:3:forces:R:3 energy=-5.117677025452398 pbc="F F F"
Ti       0.00000000       0.00000000       0.00000000       0.00000000       0.00000000       0.18355869
Ti       0.00000000       0.00000000       4.68888889       0.00000000       0.00000000      -0.18355869
2
Properties=species:S:1:pos:R:3:forces:R:3 energy=-5.10761424456863 pbc="F F F"
Ti       0.00000000       0.00000000       0.00000000       0.00000000       0.00000000       0.15494683
Ti       0.00000000       0.00000000       4.74848485       0.00000000       0.00000000      -0.15494683
2
Properties=species:S:1:pos:R:3:forces:R:3 energy=-5.099115251308533 pbc="F F F"
Ti       0.00000000       0.00000000       0.00000000       0.00000000       0.00000000       0.13103026
Ti       0.00000000       0.00000000       4.80808081       0.00000000       0.00000000      -0.13103026
2
Properties=species:S:1:pos:R:3:forces:R:3 energy=-5.091911456057117 pbc="F F F"
Ti       0.00000000       0.00000000       0.00000000       0.00000000       0.00000000       0.11139411
Ti       0.00000000       0.00000000       4.86767677       0.00000000       0.00000000      -0.11139411
2
Properties=species:S:1:pos:R:3:forces:R:3 energy=-5.085762011445619 pbc="F F F"
Ti       0.00000000       0.00000000       0.00000000       0.00000000       0.00000000       0.09558086
Ti       0.00000000       0.00000000       4.92727273       0.00000000       0.00000000      -0.09558086
2
Properties=species:S:1:pos:R:3:forces:R:3 energy=-5.080451333131038 pbc="F F F"
Ti       0.00000000       0.00000000       0.00000000       0.00000000       0.00000000       0.08319429
Ti       0.00000000       0.00000000       4.98686869       0.00000000       0.00000000      -0.08319429
2
Properties=species:S:1:pos:R:3:forces:R:3 energy=-5.075783816573544 pbc="F F F"
Ti       0.00000000       0.00000000       0.00000000       0.00000000       0.00000000       0.07394576
Ti       0.00000000       0.00000000       5.04646465       0.00000000       0.00000000      -0.07394576
2
Properties=species:S:1:pos:R:3:forces:R:3 energy=-5.071579787920357 pbc="F F F"
Ti       0.00000000       0.00000000       0.00000000       0.00000000       0.00000000       0.06760485
Ti       0.00000000       0.00000000       5.10606061       0.00000000       0.00000000      -0.06760485
2
Properties=species:S:1:pos:R:3:forces:R:3 energy=-5.067673290882363 pbc="F F F"
Ti       0.00000000       0.00000000       0.00000000       0.00000000       0.00000000       0.06389096
Ti       0.00000000       0.00000000       5.16565657       0.00000000       0.00000000      -0.06389096
2
Properties=species:S:1:pos:R:3:forces:R:3 energy=-5.063921038934163 pbc="F F F"
Ti       0.00000000       0.00000000       0.00000000       0.00000000       0.00000000       0.06235678
Ti       0.00000000       0.00000000       5.22525253       0.00000000       0.00000000      -0.06235678
2
Properties=species:S:1:pos:R:3:forces:R:3 energy=-5.060210976208166 pbc="F F F"
Ti       0.00000000       0.00000000       0.00000000       0.00000000       0.00000000       0.06234200
Ti       0.00000000       0.00000000       5.28484848       0.00000000       0.00000000      -0.06234200
2
Properties=species:S:1:pos:R:3:forces:R:3 energy=-5.056476763175198 pbc="F F F"
Ti       0.00000000       0.00000000       0.00000000       0.00000000       0.00000000       0.06301631
Ti       0.00000000       0.00000000       5.34444444       0.00000000       0.00000000      -0.06301631
2
Properties=species:S:1:pos:R:3:forces:R:3 energy=-5.052703448005245 pbc="F F F"
Ti       0.00000000       0.00000000       0.00000000       0.00000000       0.00000000       0.06350604
Ti       0.00000000       0.00000000       5.40404040       0.00000000       0.00000000      -0.06350604
2
Properties=species:S:1:pos:R:3:forces:R:3 energy=-5.048925717609927 pbc="F F F"
Ti       0.00000000       0.00000000       0.00000000       0.00000000       0.00000000       0.06305531
Ti       0.00000000       0.00000000       5.46363636       0.00000000       0.00000000      -0.06305531
2
Properties=species:S:1:pos:R:3:forces:R:3 energy=-5.045217454742353 pbc="F F F"
Ti       0.00000000       0.00000000       0.00000000       0.00000000       0.00000000       0.06115802
Ti       0.00000000       0.00000000       5.52323232       0.00000000       0.00000000      -0.06115802
2
Properties=species:S:1:pos:R:3:forces:R:3 energy=-5.041668979694233 pbc="F F F"
Ti       0.00000000       0.00000000       0.00000000       0.00000000       0.00000000       0.05765913
Ti       0.00000000       0.00000000       5.58282828       0.00000000       0.00000000      -0.05765913
2
Properties=species:S:1:pos:R:3:forces:R:3 energy=-5.038373717862381 pbc="F F F"
Ti       0.00000000       0.00000000       0.00000000       0.00000000       0.00000000       0.05272544
Ti       0.00000000       0.00000000       5.64242424       0.00000000       0.00000000      -0.05272544
2
Properties=species:S:1:pos:R:3:forces:R:3 energy=-5.035403597453639 pbc="F F F"
Ti       0.00000000       0.00000000       0.00000000       0.00000000       0.00000000       0.04680051
Ti       0.00000000       0.00000000       5.70202020       0.00000000       0.00000000      -0.04680051
2
Properties=species:S:1:pos:R:3:forces:R:3 energy=-5.032803381291958 pbc="F F F"
Ti       0.00000000       0.00000000       0.00000000       0.00000000       0.00000000       0.04048469
Ti       0.00000000       0.00000000       5.76161616       0.00000000       0.00000000      -0.04048469
2
Properties=species:S:1:pos:R:3:forces:R:3 energy=-5.030573522855456 pbc="F F F"
Ti       0.00000000       0.00000000       0.00000000       0.00000000       0.00000000       0.03442374
Ti       0.00000000       0.00000000       5.82121212       0.00000000       0.00000000      -0.03442374
2
Properties=species:S:1:pos:R:3:forces:R:3 energy=-5.0286841751198645 pbc="F F F"
Ti       0.00000000       0.00000000       0.00000000       0.00000000       0.00000000       0.02920346
Ti       0.00000000       0.00000000       5.88080808       0.00000000       0.00000000      -0.02920346
2
Properties=species:S:1:pos:R:3:forces:R:3 energy=-5.027065653815371 pbc="F F F"
Ti       0.00000000       0.00000000       0.00000000       0.00000000       0.00000000       0.02530889
Ti       0.00000000       0.00000000       5.94040404       0.00000000       0.00000000      -0.02530889
2
Properties=species:S:1:pos:R:3:forces:R:3 energy=-5.025633318490041 pbc="F F F"
Ti       0.00000000       0.00000000       0.00000000       0.00000000       0.00000000       0.02308579
Ti       0.00000000       0.00000000       6.00000000       0.00000000       0.00000000      -0.02308579
