2
Properties=species:S:1:pos:R:3:forces:R:3 energy=73485.07953722529 pbc="F F F"
Tm       0.00000000       0.00000000       0.00000000       0.00000000       0.00000000 -1839613.50000000
Tm       0.00000000       0.00000000       0.10000000       0.00000000       0.00000000 1839613.50000000
2
Properties=species:S:1:pos:R:3:forces:R:3 energy=20452.419380975294 pbc="F F F"
Tm       0.00000000       0.00000000       0.00000000       0.00000000       0.00000000 -382493.71875000
Tm       0.00000000       0.00000000       0.15959596       0.00000000       0.00000000  382493.71875000
2
Properties=species:S:1:pos:R:3:forces:R:3 energy=7444.370064569042 pbc="F F F"
Tm       0.00000000       0.00000000       0.00000000       0.00000000       0.00000000 -115621.22656250
Tm       0.00000000       0.00000000       0.21919192       0.00000000       0.00000000  115621.22656250
2
Properties=species:S:1:pos:R:3:forces:R:3 energy=3133.1320274596674 pbc="F F F"
Tm       0.00000000       0.00000000       0.00000000       0.00000000       0.00000000  -42747.97656250
Tm       0.00000000       0.00000000       0.27878788       0.00000000       0.00000000   42747.97656250
2
Properties=species:S:1:pos:R:3:forces:R:3 energy=1448.9944542174799 pbc="F F F"
Tm       0.00000000       0.00000000       0.00000000       0.00000000       0.00000000  -17809.40039062
Tm       0.00000000       0.00000000       0.33838384       0.00000000       0.00000000   17809.40039062
2
Properties=species:S:1:pos:R:3:forces:R:3 energy=720.8941734557612 pbc="F F F"
Tm       0.00000000       0.00000000       0.00000000       0.00000000       0.00000000   -8045.95068359
Tm       0.00000000       0.00000000       0.39797980       0.00000000       0.00000000    8045.95068359
2
Properties=species:S:1:pos:R:3:forces:R:3 energy=382.41770252116686 pbc="F F F"
Tm       0.00000000       0.00000000       0.00000000       0.00000000       0.00000000   -3871.59472656
Tm       0.00000000       0.00000000       0.45757576       0.00000000       0.00000000    3871.59472656
2
Properties=species:S:1:pos:R:3:forces:R:3 energy=215.55243764126 pbc="F F F"
Tm       0.00000000       0.00000000       0.00000000       0.00000000       0.00000000   -1965.22937012
Tm       0.00000000       0.00000000       0.51717172       0.00000000       0.00000000    1965.22937012
2
Properties=species:S:1:pos:R:3:forces:R:3 energy=129.03077018613385 pbc="F F F"
Tm       0.00000000       0.00000000       0.00000000       0.00000000       0.00000000   -1045.01196289
Tm       0.00000000       0.00000000       0.57676768       0.00000000       0.00000000    1045.01196289
2
Properties=species:S:1:pos:R:3:forces:R:3 energy=82.16854945998756 pbc="F F F"
Tm       0.00000000       0.00000000       0.00000000       0.00000000       0.00000000    -578.15179443
Tm       0.00000000       0.00000000       0.63636364       0.00000000       0.00000000     578.15179443
2
Properties=species:S:1:pos:R:3:forces:R:3 energy=55.84512423037525 pbc="F F F"
Tm       0.00000000       0.00000000       0.00000000       0.00000000       0.00000000    -330.33050537
Tm       0.00000000       0.00000000       0.69595960       0.00000000       0.00000000     330.33050537
2
Properties=species:S:1:pos:R:3:forces:R:3 energy=40.6251040375561 pbc="F F F"
Tm       0.00000000       0.00000000       0.00000000       0.00000000       0.00000000    -193.51400757
Tm       0.00000000       0.00000000       0.75555556       0.00000000       0.00000000     193.51400757
2
Properties=species:S:1:pos:R:3:forces:R:3 energy=31.62178349564184 pbc="F F F"
Tm       0.00000000       0.00000000       0.00000000       0.00000000       0.00000000    -115.80179596
Tm       0.00000000       0.00000000       0.81515152       0.00000000       0.00000000     115.80179596
2
Properties=species:S:1:pos:R:3:forces:R:3 energy=26.16929193812855 pbc="F F F"
Tm       0.00000000       0.00000000       0.00000000       0.00000000       0.00000000     -71.36256409
Tm       0.00000000       0.00000000       0.87474747       0.00000000       0.00000000      71.36256409
2
Properties=species:S:1:pos:R:3:forces:R:3 energy=22.72247102947092 pbc="F F F"
Tm       0.00000000       0.00000000       0.00000000       0.00000000       0.00000000     -46.92424774
Tm       0.00000000       0.00000000       0.93434343       0.00000000       0.00000000      46.92424774
2
Properties=species:S:1:pos:R:3:forces:R:3 energy=20.322365004898444 pbc="F F F"
Tm       0.00000000       0.00000000       0.00000000       0.00000000       0.00000000     -35.35857773
Tm       0.00000000       0.00000000       0.99393939       0.00000000       0.00000000      35.35857773
2
Properties=species:S:1:pos:R:3:forces:R:3 energy=18.337153249056627 pbc="F F F"
Tm       0.00000000       0.00000000       0.00000000       0.00000000       0.00000000     -32.43112183
Tm       0.00000000       0.00000000       1.05353535       0.00000000       0.00000000      32.43112183
2
Properties=species:S:1:pos:R:3:forces:R:3 energy=16.345813359455622 pbc="F F F"
Tm       0.00000000       0.00000000       0.00000000       0.00000000       0.00000000     -35.10261917
Tm       0.00000000       0.00000000       1.11313131       0.00000000       0.00000000      35.10261917
2
Properties=species:S:1:pos:R:3:forces:R:3 energy=14.095217347694064 pbc="F F F"
Tm       0.00000000       0.00000000       0.00000000       0.00000000       0.00000000     -40.69157028
Tm       0.00000000       0.00000000       1.17272727       0.00000000       0.00000000      40.69157028
2
Properties=species:S:1:pos:R:3:forces:R:3 energy=11.490953427152805 pbc="F F F"
Tm       0.00000000       0.00000000       0.00000000       0.00000000       0.00000000     -46.52433395
Tm       0.00000000       0.00000000       1.23232323       0.00000000       0.00000000      46.52433395
2
Properties=species:S:1:pos:R:3:forces:R:3 energy=8.595119210626766 pbc="F F F"
Tm       0.00000000       0.00000000       0.00000000       0.00000000       0.00000000     -50.09864044
Tm       0.00000000       0.00000000       1.29191919       0.00000000       0.00000000      50.09864044
2
Properties=species:S:1:pos:R:3:forces:R:3 energy=5.605258872044071 pbc="F F F"
Tm       0.00000000       0.00000000       0.00000000       0.00000000       0.00000000     -49.36878586
Tm       0.00000000       0.00000000       1.35151515       0.00000000       0.00000000      49.36878586
2
Properties=species:S:1:pos:R:3:forces:R:3 energy=2.825648489636209 pbc="F F F"
Tm       0.00000000       0.00000000       0.00000000       0.00000000       0.00000000     -42.95057678
Tm       0.00000000       0.00000000       1.41111111       0.00000000       0.00000000      42.95057678
2
Properties=species:S:1:pos:R:3:forces:R:3 energy=0.5774125523112641 pbc="F F F"
Tm       0.00000000       0.00000000       0.00000000       0.00000000       0.00000000     -32.01914978
Tm       0.00000000       0.00000000       1.47070707       0.00000000       0.00000000      32.01914978
2
Properties=species:S:1:pos:R:3:forces:R:3 energy=-0.9634486226863297 pbc="F F F"
Tm       0.00000000       0.00000000       0.00000000       0.00000000       0.00000000     -19.59441185
Tm       0.00000000       0.00000000       1.53030303       0.00000000       0.00000000      19.59441185
2
Properties=species:S:1:pos:R:3:forces:R:3 energy=-1.7494415104541416 pbc="F F F"
Tm       0.00000000       0.00000000       0.00000000       0.00000000       0.00000000      -6.79522562
Tm       0.00000000       0.00000000       1.58989899       0.00000000       0.00000000       6.79522562
2
Properties=species:S:1:pos:R:3:forces:R:3 energy=-1.810138705823508 pbc="F F F"
Tm       0.00000000       0.00000000       0.00000000       0.00000000       0.00000000       4.07004881
Tm       0.00000000       0.00000000       1.64949495       0.00000000       0.00000000      -4.07004881
2
Properties=species:S:1:pos:R:3:forces:R:3 energy=-1.3781207058413592 pbc="F F F"
Tm       0.00000000       0.00000000       0.00000000       0.00000000       0.00000000       9.38931847
Tm       0.00000000       0.00000000       1.70909091       0.00000000       0.00000000      -9.38931847
2
Properties=species:S:1:pos:R:3:forces:R:3 energy=-0.7964991677688236 pbc="F F F"
Tm       0.00000000       0.00000000       0.00000000       0.00000000       0.00000000       9.47759914
Tm       0.00000000       0.00000000       1.76868687       0.00000000       0.00000000      -9.47759914
2
Properties=species:S:1:pos:R:3:forces:R:3 energy=-0.2972934414325401 pbc="F F F"
Tm       0.00000000       0.00000000       0.00000000       0.00000000       0.00000000       7.07207632
Tm       0.00000000       0.00000000       1.82828283       0.00000000       0.00000000      -7.07207632
2
Properties=species:S:1:pos:R:3:forces:R:3 energy=0.03898011556422762 pbc="F F F"
Tm       0.00000000       0.00000000       0.00000000       0.00000000       0.00000000       4.25260115
Tm       0.00000000       0.00000000       1.88787879       0.00000000       0.00000000      -4.25260115
2
Properties=species:S:1:pos:R:3:forces:R:3 energy=0.2210444449155488 pbc="F F F"
Tm       0.00000000       0.00000000       0.00000000       0.00000000       0.00000000       1.98607635
Tm       0.00000000       0.00000000       1.94747475       0.00000000       0.00000000      -1.98607635
2
Properties=species:S:1:pos:R:3:forces:R:3 energy=0.2913834226756762 pbc="F F F"
Tm       0.00000000       0.00000000       0.00000000       0.00000000       0.00000000       0.49408451
Tm       0.00000000       0.00000000       2.00707071       0.00000000       0.00000000      -0.49408451
2
Properties=species:S:1:pos:R:3:forces:R:3 energy=0.29127004386896177 pbc="F F F"
Tm       0.00000000       0.00000000       0.00000000       0.00000000       0.00000000      -0.42906323
Tm       0.00000000       0.00000000       2.06666667       0.00000000       0.00000000       0.42906323
2
Properties=species:S:1:pos:R:3:forces:R:3 energy=0.2458442879646448 pbc="F F F"
Tm       0.00000000       0.00000000       0.00000000       0.00000000       0.00000000      -1.06510723
Tm       0.00000000       0.00000000       2.12626263       0.00000000       0.00000000       1.06510723
2
Properties=species:S:1:pos:R:3:forces:R:3 energy=0.16680512981195852 pbc="F F F"
Tm       0.00000000       0.00000000       0.00000000       0.00000000       0.00000000      -1.57229412
Tm       0.00000000       0.00000000       2.18585859       0.00000000       0.00000000       1.57229412
2
Properties=species:S:1:pos:R:3:forces:R:3 energy=0.059966951327703966 pbc="F F F"
Tm       0.00000000       0.00000000       0.00000000       0.00000000       0.00000000      -2.00143075
Tm       0.00000000       0.00000000       2.24545455       0.00000000       0.00000000       2.00143075
2
Properties=species:S:1:pos:R:3:forces:R:3 energy=-0.070373565969945 pbc="F F F"
Tm       0.00000000       0.00000000       0.00000000       0.00000000       0.00000000      -2.36098027
Tm       0.00000000       0.00000000       2.30505051       0.00000000       0.00000000       2.36098027
2
Properties=species:S:1:pos:R:3:forces:R:3 energy=-0.21999284636757854 pbc="F F F"
Tm       0.00000000       0.00000000       0.00000000       0.00000000       0.00000000      -2.64740396
Tm       0.00000000       0.00000000       2.36464646       0.00000000       0.00000000       2.64740396
2
Properties=species:S:1:pos:R:3:forces:R:3 energy=-0.3843107807575194 pbc="F F F"
Tm       0.00000000       0.00000000       0.00000000       0.00000000       0.00000000      -2.85270071
Tm       0.00000000       0.00000000       2.42424242       0.00000000       0.00000000       2.85270071
2
Properties=species:S:1:pos:R:3:forces:R:3 energy=-0.5582241703774886 pbc="F F F"
Tm       0.00000000       0.00000000       0.00000000       0.00000000       0.00000000      -2.96809840
Tm       0.00000000       0.00000000       2.48383838       0.00000000       0.00000000       2.96809840
2
Properties=species:S:1:pos:R:3:forces:R:3 energy=-0.7361962485273128 pbc="F F F"
Tm       0.00000000       0.00000000       0.00000000       0.00000000       0.00000000      -2.98864770
Tm       0.00000000       0.00000000       2.54343434       0.00000000       0.00000000       2.98864770
2
Properties=species:S:1:pos:R:3:forces:R:3 energy=-0.9126125202982331 pbc="F F F"
Tm       0.00000000       0.00000000       0.00000000       0.00000000       0.00000000      -2.91724443
Tm       0.00000000       0.00000000       2.60303030       0.00000000       0.00000000       2.91724443
2
Properties=species:S:1:pos:R:3:forces:R:3 energy=-1.0823048282005499 pbc="F F F"
Tm       0.00000000       0.00000000       0.00000000       0.00000000       0.00000000      -2.76540685
Tm       0.00000000       0.00000000       2.66262626       0.00000000       0.00000000       2.76540685
2
Properties=species:S:1:pos:R:3:forces:R:3 energy=-1.240967081181695 pbc="F F F"
Tm       0.00000000       0.00000000       0.00000000       0.00000000       0.00000000      -2.55014825
Tm       0.00000000       0.00000000       2.72222222       0.00000000       0.00000000       2.55014825
2
Properties=species:S:1:pos:R:3:forces:R:3 energy=-1.3853549144710902 pbc="F F F"
Tm       0.00000000       0.00000000       0.00000000       0.00000000       0.00000000      -2.28912759
Tm       0.00000000       0.00000000       2.78181818       0.00000000       0.00000000       2.28912759
2
Properties=species:S:1:pos:R:3:forces:R:3 energy=-1.5132054603123841 pbc="F F F"
Tm       0.00000000       0.00000000       0.00000000       0.00000000       0.00000000      -1.99740648
Tm       0.00000000       0.00000000       2.84141414       0.00000000       0.00000000       1.99740648
2
Properties=species:S:1:pos:R:3:forces:R:3 energy=-1.623061974675438 pbc="F F F"
Tm       0.00000000       0.00000000       0.00000000       0.00000000       0.00000000      -1.68712163
Tm       0.00000000       0.00000000       2.90101010       0.00000000       0.00000000       1.68712163
2
Properties=species:S:1:pos:R:3:forces:R:3 energy=-1.7141363255890296 pbc="F F F"
Tm       0.00000000       0.00000000       0.00000000       0.00000000       0.00000000      -1.36876416
Tm       0.00000000       0.00000000       2.96060606       0.00000000       0.00000000       1.36876416
2
Properties=species:S:1:pos:R:3:forces:R:3 energy=-1.7862377946847223 pbc="F F F"
Tm       0.00000000       0.00000000       0.00000000       0.00000000       0.00000000      -1.05190134
Tm       0.00000000       0.00000000       3.02020202       0.00000000       0.00000000       1.05190134
2
Properties=species:S:1:pos:R:3:forces:R:3 energy=-1.8397052090972446 pbc="F F F"
Tm       0.00000000       0.00000000       0.00000000       0.00000000       0.00000000      -0.74451494
Tm       0.00000000       0.00000000       3.07979798       0.00000000       0.00000000       0.74451494
2
Properties=species:S:1:pos:R:3:forces:R:3 energy=-1.875273263501394 pbc="F F F"
Tm       0.00000000       0.00000000       0.00000000       0.00000000       0.00000000      -0.45185605
Tm       0.00000000       0.00000000       3.13939394       0.00000000       0.00000000       0.45185605
2
Properties=species:S:1:pos:R:3:forces:R:3 energy=-1.8939037641075434 pbc="F F F"
Tm       0.00000000       0.00000000       0.00000000       0.00000000       0.00000000      -0.17631949
Tm       0.00000000       0.00000000       3.19898990       0.00000000       0.00000000       0.17631949
2
Properties=species:S:1:pos:R:3:forces:R:3 energy=-1.896647829058564 pbc="F F F"
Tm       0.00000000       0.00000000       0.00000000       0.00000000       0.00000000       0.08115416
Tm       0.00000000       0.00000000       3.25858586       0.00000000       0.00000000      -0.08115416
2
Properties=species:S:1:pos:R:3:forces:R:3 energy=-1.8846219768798282 pbc="F F F"
Tm       0.00000000       0.00000000       0.00000000       0.00000000       0.00000000       0.31885597
Tm       0.00000000       0.00000000       3.31818182       0.00000000       0.00000000      -0.31885597
2
Properties=species:S:1:pos:R:3:forces:R:3 energy=-1.8591141047055726 pbc="F F F"
Tm       0.00000000       0.00000000       0.00000000       0.00000000       0.00000000       0.53273726
Tm       0.00000000       0.00000000       3.37777778       0.00000000       0.00000000      -0.53273726
2
Properties=species:S:1:pos:R:3:forces:R:3 energy=-1.8217261679592491 pbc="F F F"
Tm       0.00000000       0.00000000       0.00000000       0.00000000       0.00000000       0.71628582
Tm       0.00000000       0.00000000       3.43737374       0.00000000       0.00000000      -0.71628582
2
Properties=species:S:1:pos:R:3:forces:R:3 energy=-1.7744916406855509 pbc="F F F"
Tm       0.00000000       0.00000000       0.00000000       0.00000000       0.00000000       0.86195129
Tm       0.00000000       0.00000000       3.49696970       0.00000000       0.00000000      -0.86195129
2
Properties=species:S:1:pos:R:3:forces:R:3 energy=-1.7198673269553464 pbc="F F F"
Tm       0.00000000       0.00000000       0.00000000       0.00000000       0.00000000       0.96348608
Tm       0.00000000       0.00000000       3.55656566       0.00000000       0.00000000      -0.96348608
2
Properties=species:S:1:pos:R:3:forces:R:3 energy=-1.6605827626870637 pbc="F F F"
Tm       0.00000000       0.00000000       0.00000000       0.00000000       0.00000000       1.01836383
Tm       0.00000000       0.00000000       3.61616162       0.00000000       0.00000000      -1.01836383
2
Properties=species:S:1:pos:R:3:forces:R:3 energy=-1.599361396621767 pbc="F F F"
Tm       0.00000000       0.00000000       0.00000000       0.00000000       0.00000000       1.02941906
Tm       0.00000000       0.00000000       3.67575758       0.00000000       0.00000000      -1.02941906
2
Properties=species:S:1:pos:R:3:forces:R:3 energy=-1.538591435635727 pbc="F F F"
Tm       0.00000000       0.00000000       0.00000000       0.00000000       0.00000000       1.00502360
Tm       0.00000000       0.00000000       3.73535354       0.00000000       0.00000000      -1.00502360
2
Properties=species:S:1:pos:R:3:forces:R:3 energy=-1.480030946300649 pbc="F F F"
Tm       0.00000000       0.00000000       0.00000000       0.00000000       0.00000000       0.95747250
Tm       0.00000000       0.00000000       3.79494949       0.00000000       0.00000000      -0.95747250
2
Properties=species:S:1:pos:R:3:forces:R:3 energy=-1.4246630777853588 pbc="F F F"
Tm       0.00000000       0.00000000       0.00000000       0.00000000       0.00000000       0.90002209
Tm       0.00000000       0.00000000       3.85454545       0.00000000       0.00000000      -0.90002209
2
Properties=species:S:1:pos:R:3:forces:R:3 energy=-1.3727295354915428 pbc="F F F"
Tm       0.00000000       0.00000000       0.00000000       0.00000000       0.00000000       0.84376693
Tm       0.00000000       0.00000000       3.91414141       0.00000000       0.00000000      -0.84376693
2
Properties=species:S:1:pos:R:3:forces:R:3 energy=-1.3239291773944946 pbc="F F F"
Tm       0.00000000       0.00000000       0.00000000       0.00000000       0.00000000       0.79558295
Tm       0.00000000       0.00000000       3.97373737       0.00000000       0.00000000      -0.79558295
2
Properties=species:S:1:pos:R:3:forces:R:3 energy=-1.27769310590184 pbc="F F F"
Tm       0.00000000       0.00000000       0.00000000       0.00000000       0.00000000       0.75780594
Tm       0.00000000       0.00000000       4.03333333       0.00000000       0.00000000      -0.75780594
2
Properties=species:S:1:pos:R:3:forces:R:3 energy=-1.2334198361035995 pbc="F F F"
Tm       0.00000000       0.00000000       0.00000000       0.00000000       0.00000000       0.72928828
Tm       0.00000000       0.00000000       4.09292929       0.00000000       0.00000000      -0.72928828
2
Properties=species:S:1:pos:R:3:forces:R:3 energy=-1.1906418259819984 pbc="F F F"
Tm       0.00000000       0.00000000       0.00000000       0.00000000       0.00000000       0.70708025
Tm       0.00000000       0.00000000       4.15252525       0.00000000       0.00000000      -0.70708025
2
Properties=species:S:1:pos:R:3:forces:R:3 energy=-1.1490817305248464 pbc="F F F"
Tm       0.00000000       0.00000000       0.00000000       0.00000000       0.00000000       0.68792409
Tm       0.00000000       0.00000000       4.21212121       0.00000000       0.00000000      -0.68792409
2
Properties=species:S:1:pos:R:3:forces:R:3 energy=-1.1086387623493263 pbc="F F F"
Tm       0.00000000       0.00000000       0.00000000       0.00000000       0.00000000       0.66919857
Tm       0.00000000       0.00000000       4.27171717       0.00000000       0.00000000      -0.66919857
2
Properties=species:S:1:pos:R:3:forces:R:3 energy=-1.0693427085944487 pbc="F F F"
Tm       0.00000000       0.00000000       0.00000000       0.00000000       0.00000000       0.64929825
Tm       0.00000000       0.00000000       4.33131313       0.00000000       0.00000000      -0.64929825
2
Properties=species:S:1:pos:R:3:forces:R:3 energy=-1.0312839841624615 pbc="F F F"
Tm       0.00000000       0.00000000       0.00000000       0.00000000       0.00000000       0.62762189
Tm       0.00000000       0.00000000       4.39090909       0.00000000       0.00000000      -0.62762189
2
Properties=species:S:1:pos:R:3:forces:R:3 energy=-0.9945658567201632 pbc="F F F"
Tm       0.00000000       0.00000000       0.00000000       0.00000000       0.00000000       0.60438299
Tm       0.00000000       0.00000000       4.45050505       0.00000000       0.00000000      -0.60438299
2
Properties=species:S:1:pos:R:3:forces:R:3 energy=-0.9592636440277605 pbc="F F F"
Tm       0.00000000       0.00000000       0.00000000       0.00000000       0.00000000       0.58028638
Tm       0.00000000       0.00000000       4.51010101       0.00000000       0.00000000      -0.58028638
2
Properties=species:S:1:pos:R:3:forces:R:3 energy=-0.9254003192160694 pbc="F F F"
Tm       0.00000000       0.00000000       0.00000000       0.00000000       0.00000000       0.55616927
Tm       0.00000000       0.00000000       4.56969697       0.00000000       0.00000000      -0.55616927
2
Properties=species:S:1:pos:R:3:forces:R:3 energy=-0.8929596819971155 pbc="F F F"
Tm       0.00000000       0.00000000       0.00000000       0.00000000       0.00000000       0.53265357
Tm       0.00000000       0.00000000       4.62929293       0.00000000       0.00000000      -0.53265357
2
Properties=species:S:1:pos:R:3:forces:R:3 energy=-0.8618973094956865 pbc="F F F"
Tm       0.00000000       0.00000000       0.00000000       0.00000000       0.00000000       0.50991732
Tm       0.00000000       0.00000000       4.68888889       0.00000000       0.00000000      -0.50991732
2
Properties=species:S:1:pos:R:3:forces:R:3 energy=-0.8321723609550171 pbc="F F F"
Tm       0.00000000       0.00000000       0.00000000       0.00000000       0.00000000       0.48764083
Tm       0.00000000       0.00000000       4.74848485       0.00000000       0.00000000      -0.48764083
2
Properties=species:S:1:pos:R:3:forces:R:3 energy=-0.8037783579081177 pbc="F F F"
Tm       0.00000000       0.00000000       0.00000000       0.00000000       0.00000000       0.46517703
Tm       0.00000000       0.00000000       4.80808081       0.00000000       0.00000000      -0.46517703
2
Properties=species:S:1:pos:R:3:forces:R:3 energy=-0.7767446132733559 pbc="F F F"
Tm       0.00000000       0.00000000       0.00000000       0.00000000       0.00000000       0.44183218
Tm       0.00000000       0.00000000       4.86767677       0.00000000       0.00000000      -0.44183218
2
Properties=species:S:1:pos:R:3:forces:R:3 energy=-0.7511415476711769 pbc="F F F"
Tm       0.00000000       0.00000000       0.00000000       0.00000000       0.00000000       0.41713583
Tm       0.00000000       0.00000000       4.92727273       0.00000000       0.00000000      -0.41713583
2
Properties=species:S:1:pos:R:3:forces:R:3 energy=-0.7270536974395119 pbc="F F F"
Tm       0.00000000       0.00000000       0.00000000       0.00000000       0.00000000       0.39100704
Tm       0.00000000       0.00000000       4.98686869       0.00000000       0.00000000      -0.39100704
2
Properties=species:S:1:pos:R:3:forces:R:3 energy=-0.7045616302517848 pbc="F F F"
Tm       0.00000000       0.00000000       0.00000000       0.00000000       0.00000000       0.36373833
Tm       0.00000000       0.00000000       5.04646465       0.00000000       0.00000000      -0.36373833
2
Properties=species:S:1:pos:R:3:forces:R:3 energy=-0.6837130129375137 pbc="F F F"
Tm       0.00000000       0.00000000       0.00000000       0.00000000       0.00000000       0.33584812
Tm       0.00000000       0.00000000       5.10606061       0.00000000       0.00000000      -0.33584812
2
Properties=species:S:1:pos:R:3:forces:R:3 energy=-0.6645294291705469 pbc="F F F"
Tm       0.00000000       0.00000000       0.00000000       0.00000000       0.00000000       0.30788153
Tm       0.00000000       0.00000000       5.16565657       0.00000000       0.00000000      -0.30788153
2
Properties=species:S:1:pos:R:3:forces:R:3 energy=-0.6470072913777138 pbc="F F F"
Tm       0.00000000       0.00000000       0.00000000       0.00000000       0.00000000       0.28026187
Tm       0.00000000       0.00000000       5.22525253       0.00000000       0.00000000      -0.28026187
2
Properties=species:S:1:pos:R:3:forces:R:3 energy=-0.6311145296371901 pbc="F F F"
Tm       0.00000000       0.00000000       0.00000000       0.00000000       0.00000000       0.25321066
Tm       0.00000000       0.00000000       5.28484848       0.00000000       0.00000000      -0.25321066
2
Properties=species:S:1:pos:R:3:forces:R:3 energy=-0.6168139008464025 pbc="F F F"
Tm       0.00000000       0.00000000       0.00000000       0.00000000       0.00000000       0.22679244
Tm       0.00000000       0.00000000       5.34444444       0.00000000       0.00000000      -0.22679244
2
Properties=species:S:1:pos:R:3:forces:R:3 energy=-0.6040695961660507 pbc="F F F"
Tm       0.00000000       0.00000000       0.00000000       0.00000000       0.00000000       0.20099032
Tm       0.00000000       0.00000000       5.40404040       0.00000000       0.00000000      -0.20099032
2
Properties=species:S:1:pos:R:3:forces:R:3 energy=-0.5928427490809698 pbc="F F F"
Tm       0.00000000       0.00000000       0.00000000       0.00000000       0.00000000       0.17582132
Tm       0.00000000       0.00000000       5.46363636       0.00000000       0.00000000      -0.17582132
2
Properties=species:S:1:pos:R:3:forces:R:3 energy=-0.5831009392971211 pbc="F F F"
Tm       0.00000000       0.00000000       0.00000000       0.00000000       0.00000000       0.15138596
Tm       0.00000000       0.00000000       5.52323232       0.00000000       0.00000000      -0.15138596
2
Properties=species:S:1:pos:R:3:forces:R:3 energy=-0.5747819747083477 pbc="F F F"
Tm       0.00000000       0.00000000       0.00000000       0.00000000       0.00000000       0.12795115
Tm       0.00000000       0.00000000       5.58282828       0.00000000       0.00000000      -0.12795115
2
Properties=species:S:1:pos:R:3:forces:R:3 energy=-0.5678230331479193 pbc="F F F"
Tm       0.00000000       0.00000000       0.00000000       0.00000000       0.00000000       0.10588714
Tm       0.00000000       0.00000000       5.64242424       0.00000000       0.00000000      -0.10588714
2
Properties=species:S:1:pos:R:3:forces:R:3 energy=-0.5621226225378528 pbc="F F F"
Tm       0.00000000       0.00000000       0.00000000       0.00000000       0.00000000       0.08567603
Tm       0.00000000       0.00000000       5.70202020       0.00000000       0.00000000      -0.08567603
2
Properties=species:S:1:pos:R:3:forces:R:3 energy=-0.5575644310823373 pbc="F F F"
Tm       0.00000000       0.00000000       0.00000000       0.00000000       0.00000000       0.06785424
Tm       0.00000000       0.00000000       5.76161616       0.00000000       0.00000000      -0.06785424
2
Properties=species:S:1:pos:R:3:forces:R:3 energy=-0.553978420105854 pbc="F F F"
Tm       0.00000000       0.00000000       0.00000000       0.00000000       0.00000000       0.05297057
Tm       0.00000000       0.00000000       5.82121212       0.00000000       0.00000000      -0.05297057
2
Properties=species:S:1:pos:R:3:forces:R:3 energy=-0.551183065323365 pbc="F F F"
Tm       0.00000000       0.00000000       0.00000000       0.00000000       0.00000000       0.04156105
Tm       0.00000000       0.00000000       5.88080808       0.00000000       0.00000000      -0.04156105
2
Properties=species:S:1:pos:R:3:forces:R:3 energy=-0.5489456621467637 pbc="F F F"
Tm       0.00000000       0.00000000       0.00000000       0.00000000       0.00000000       0.03409350
Tm       0.00000000       0.00000000       5.94040404       0.00000000       0.00000000      -0.03409350
2
Properties=species:S:1:pos:R:3:forces:R:3 energy=-0.5470303676125388 pbc="F F F"
Tm       0.00000000       0.00000000       0.00000000       0.00000000       0.00000000       0.03099215
Tm       0.00000000       0.00000000       6.00000000       0.00000000       0.00000000      -0.03099215
